210
0 1 C5H140O65
O                     2.887897863336     0.662102371949     3.779962299177
H                     3.641214071871     0.223918971273     3.249537066390
H                     2.178738857729     0.845014607401     3.081599985071
O                     3.956803644332     2.992012918608     4.305989900007
H                     4.103258289939     3.113178322904     5.262098441694
H                     3.499972075794     2.080197631309     4.212615189448
O                    -0.165526758500     3.171780894201     3.793632941526
H                    -0.941092011187     3.265670420101     3.163267052019
H                    -0.140322053248     2.211814719441     3.970571332490
O                     4.667712189174     2.053769029128    -3.087719797802
H                     3.891427292523     1.451486637692    -3.248217885813
H                     5.305713534320     1.433949810766    -2.619043020745
O                     5.979563725015     0.469974764086    -1.354332035485
H                     5.089966064617     0.452780515903    -0.900741158769
H                     6.469972460712     1.203728973927    -0.860088230831
O                     6.929244615713     2.668383382157    -0.156827677835
H                     6.694476574977     2.681829663953     0.801346713473
H                     6.293210402179     3.303886497567    -0.568890118794
O                     3.662178448384     0.420224544341     0.020196238749
H                     3.440722521855     1.361130301025     0.306254579541
H                     2.773035954472    -0.032045447848    -0.151110103286
O                     0.893633440979     0.876383465143     2.019889453068
H                     0.078593129448     0.469049719988     2.473948122439
H                     0.604943316706     1.703612923920     1.515427823863
O                     5.719988142399     2.268470400155     2.359873729808
H                     5.328016173540     2.604508184384     3.211128675342
H                     5.625560940702     1.273250111530     2.408040402626
O                     2.038326294011     4.111474073058     2.687002482315
H                     2.725951131544     4.007008464343     3.396248976790
H                     1.196277349159     3.707251212555     3.095075789664
O                     0.111484879826     2.727382084931     0.332013502670
H                     0.491760132583     3.664480528004     0.346280961661
H                    -0.845215424861     2.839947682207     0.598982564061
O                     3.578168973222     2.870784272343     0.907017999545
H                     4.402644292164     2.691987966652     1.470175176483
H                     2.904793380401     3.299042054832     1.527966767830
O                     4.612080730952     3.888430884777    -1.299298642762
H                     4.181273436163     3.488298130187    -0.480074005317
H                     4.550528705802     3.158890497190    -2.045364784838
O                     1.049126168756     5.221384944133     0.429829782770
H                     1.792768049486     5.414792832756    -0.217804196309
H                     1.467869958843     5.121766852673     1.328962914873
O                    -5.634480709431     1.921812092808     1.143392791628
H                    -5.873826963847     1.283301112965     0.394103145407
H                    -4.767591927014     1.562046648048     1.476736370634
O                    -2.074708296182     3.192912718259     1.908935946539
H                    -2.616616229932     3.973808611119     1.580333567795
H                    -2.682983815325     2.418522096101     1.991386476222
O                    -2.483586111645     2.432631791491    -1.116162591809
H                    -2.764468522514     1.663789962812    -1.683946587355
H                    -3.355161684323     2.869683694872    -0.902556517065
O                     0.730798501114     1.823422126402    -2.099046965887
H                     0.412171636676     2.064561640674    -1.171261808884
H                     1.107022971116     2.684155768218    -2.444146015540
O                     0.451732369310    -4.151145663025     4.276178828846
H                     1.019642970504    -3.369640285021     4.478769487271
H                     0.915708406995    -4.610484203307     3.520345610075
O                     1.340471873609     4.219490455564    -3.124658192768
H                     1.937224744201     4.847632414343    -2.584168162896
H                     1.722378569123     4.184565283546    -4.020970932049
O                    -5.605125270432     2.214335105827    -2.699838130652
H                    -5.346543101611     2.926812036670    -2.024639300085
H                    -6.185255160807     2.656732170004    -3.345472237925
O                    -1.364727525993    -2.797124916035     3.070471446541
H                    -0.708492591579    -3.401467082137     3.599523824307
H                    -2.295581900234    -3.157502036733     3.165343453433
O                    -3.301663085432     5.267494424669     0.741301224092
H                    -2.492337072844     5.639326702655     0.163897966921
H                    -3.626974907985     6.025538006065     1.260699250492
O                    -4.891877846987     3.679735548089    -0.666546248703
H                    -4.412380147404     4.453733277335    -0.245794426897
H                    -5.238272766961     3.134939957802     0.113323061535
O                     2.843561914930     5.594273036490    -1.539403615588
H                     3.696917085436     4.925220117675    -1.477746479969
H                     3.175158928676     6.489455040491    -1.735256604555
O                    -1.374777458490     6.060927393500    -0.665517644624
H                    -1.409282728393     5.512546590568    -1.507333132366
H                    -0.507060788911     5.841852245825    -0.233271855673
O                    -3.308689489851     0.663123123038     2.039883159824
H                    -2.920825904686     0.265489566579     1.188127612649
H                    -3.983122918500    -0.053519332054     2.292952958435
O                    -6.337742976961     0.326053956549    -0.866993342542
H                    -6.268112580139     0.936311858191    -1.651771591634
H                    -7.323162930103     0.169360896105    -0.600794662626
O                    -1.427788198328     4.292587307081    -2.748707646057
H                    -0.442079721895     4.252179197688    -2.844967282599
H                    -1.701437349405     3.558107378322    -2.110758631245
O                    -1.156662227692     1.695351456933    -4.012000584563
H                    -1.376787151826     2.658068162540    -4.026644664267
H                    -0.521683828529     1.654405385988    -3.224962415399
H                     4.380621926362    -0.086632622471     1.370069712812
O                     4.823605292429    -0.273271228589     2.268550723963
O                     1.264148035960    -0.655980050919    -0.084320790115
H                     0.546496736266    -1.052981531659     4.219331596566
H                    -1.219425031467    -1.188788750780     3.271070583576
O                     2.568510333117     0.239502314067    -3.204613667778
H                     2.875389675149    -0.632758320844    -2.806582408186
O                    -1.060244208411    -0.192548806464     3.394137554428
H                     2.065781473521    -0.759294503404     4.279837766460
H                     1.020075070155    -0.016919139535     0.660793483869
H                     1.286889918723    -0.229257369184    -4.104750405629
H                     1.990778716195     0.690997977119    -2.523949235683
O                     1.412258873943    -1.519435002416     4.208993527077
H                     5.033270039433    -1.252247877679     2.199689988936
O                     0.391683942995    -0.604683808202    -4.405000257899
H                     1.494491334989    -1.467460915443     0.475474931470
O                     2.053836901397    -2.445000626152     1.687848486101
H                    -1.917831441909     0.215255176144     3.091511797025
H                     1.802861247513    -2.080700137988     2.587652916539
O                     5.654312255122    -2.207650110668    -0.885445603709
H                     6.008668355182    -1.287173711170    -1.030805418710
H                    -6.901665920949     1.061819505466     2.213455666221
H                    -2.617871813992     0.961344295095    -3.511279740810
O                    -7.425148555112     0.260852799440     2.475796697189
H                     5.110530425492    -2.541886178790     0.512708665530
O                     4.748317139250    -2.840051390357     1.439334019548
H                    -0.131817032449     0.168161330745    -4.720707471745
O                    -3.398384116875     0.606879549661    -2.983569504620
O                    -0.694358972088    -0.900518560375    -1.934361763197
H                     3.774562670171    -2.605770504870     1.459773907360
H                     0.071646736623    -0.809394747416    -1.287492545731
H                    -8.872899307532    -1.056935231562     0.132958626446
H                     1.779241486216    -3.422808455079     1.727558848883
H                    -6.703033714439    -0.416378209202     2.557799368323
H                     3.109228861710    -4.794522850662    -4.400464113807
H                     4.831668238586    -2.218195829295    -1.444294563763
O                    -5.120543918847    -1.270908539415     2.283988733528
O                    -1.086915591804    -2.817900265156     0.484374676134
H                     0.293303697575    -2.922761036953    -0.595926671505
H                    -0.313770716302    -0.697573056879    -2.838317498892
H                    -8.259728031340    -0.000490727195     1.133283601866
O                    -8.624038912544    -0.115781338392     0.182466927538
H                     0.405053959771    -2.371027441299    -4.264788432264
O                     2.711063741450    -4.495310540273    -3.562663366560
H                    -1.546479169987    -3.657543427530     0.155231626450
H                    -4.162203297102     1.223950433262    -3.136132225808
H                    -1.074635976421    -2.880637927721     1.499812439389
H                    -5.131853827575    -1.515244797341     1.311871734535
H                    -4.765177624783    -2.109363873579     2.712656665398
H                    -2.029939877701    -0.437045129913    -0.870475746638
O                     1.001524165065    -3.299801074872    -1.198394354341
H                     4.461428318327    -4.393589609705     1.164640574288
H                     1.780212076597    -4.185295151213    -3.801195651174
H                    -1.510047700329    -2.402375920426    -2.284187958165
O                     0.387597848245    -3.299323936949    -3.901837557659
H                    -4.084704982385    -3.971058413653     1.988787205389
O                    -2.519957212766    -0.726219541293    -0.049598520514
H                    -5.489635471641    -1.045276171711    -0.695344474682
H                     0.678751176015    -3.189692907770    -2.138018623742
O                    -4.881947450330    -1.811559634955    -0.426319633912
O                     3.255759698252    -2.199127621730    -2.217787971251
H                     2.518078088616    -2.468806292695    -1.598753565027
H                     3.246067198502    -2.973517465997    -2.850451669919
H                    -3.964147078818    -1.376190430436    -0.378447188916
O                    -3.933960286546    -3.568666273461     2.950023855255
O                     1.587098177665    -5.026366509961     1.955459603494
O                     4.074427635981    -5.325851944584     0.971487553285
O                    -1.926908931906    -3.213470363875    -2.704348429729
H                    -0.583890863938    -3.440232826556    -3.664554533437
H                     4.734798286091    -5.952116070404     1.320845754511
O                    -4.170763505791    -2.029218445118    -3.187010413237
H                     2.533432451139    -5.280866499944     1.742263741632
H                    -4.566875730688    -2.114547942248    -2.285721889437
H                    -4.334419030173    -4.209079089740     3.566723732714
H                    -1.963600455119    -1.548915380154     0.215363191797
H                     0.702063485352    -4.842445615119    -0.701593845869
H                    -2.836530493910    -2.838113913835    -3.012968219731
H                     1.064355708959    -5.393590024867     1.165441584540
H                    -2.037371510153    -4.430236491530    -1.555918648946
O                    -2.087626347995    -4.956322460606    -0.694553677551
H                    -3.893644089943    -1.069206581197    -3.206893717751
O                     0.480038333481    -5.759089924929    -0.348695443812
H                    -3.591933973160    -4.740417576557     0.103466220510
H                     3.361512758078    -5.923785901668    -0.664806319326
H                     2.840431202008    -5.742044555462    -2.133291928228
O                    -4.385534336618    -4.384974334835     0.596562806013
H                    -1.254056785306    -5.508908185030    -0.640850123034
H                    -4.673388329148    -3.580958197506     0.095409084719
O                     2.821354220685    -6.367567499806    -1.367080263747
H                     1.269419032570    -6.253522248964    -0.757159342152
C                     2.235118360856     1.620769141485     7.880042954051
O                     1.390317160040     2.296092625035     6.994254877435
H                     1.748804213203     3.159698524332     6.820712973356
H                     3.233554824522     1.477501915429     7.470113769306
H                     1.800073256211     0.645174823788     8.055790558704
H                     2.321336150728     2.130732075805     8.838139365806
C                    -5.806572879624     1.024278287697    -4.435100254525
O                    -5.761024993694     0.834535670939    -5.819403151521
H                    -6.377657877318     0.151535281299    -6.059651473160
H                    -6.789711872609     1.345023527885    -4.094508090756
H                    -5.096002399642     1.805167026081    -4.195855385171
H                    -5.522501170624     0.128039125215    -3.886007311362
C                     2.561694186679     4.165546622844    -6.005990781998
O                     3.015329815912     4.620327613815    -4.764314351541
H                     3.295808713282     3.875134958102    -4.244252429995
H                     3.341940837310     3.656324615995    -6.569329858311
H                     2.251336224168     5.035176855426    -6.571107518023
H                     1.706148291313     3.498461856952    -5.913884461587
C                     5.856652464557    -6.424789347217    -3.186935095445
O                     4.591119010909    -6.969256974637    -2.949550463906
H                     4.586929033380    -7.383559682025    -2.093524398432
H                     6.120081769626    -5.659565048035    -2.458594797103
H                     5.827446856794    -5.962547380918    -4.165411015891
H                     6.637712026636    -7.183302568096    -3.193869899289
C                    -6.483494711188    -5.466598567291     2.539374703748
O                    -6.611005871009    -4.651678479531     3.668098560219
H                    -5.751804609976    -4.518081056815     4.053286598948
H                    -5.854861390202    -5.015471719588     1.773380234762
H                    -7.475474038111    -5.598281696739     2.126370708362
H                    -6.084822882583    -6.450008313796     2.783117357139
