55
0 1 C10H30N10O5
H                     0.052268076664     1.508275607562     0.391705718637
H                    -2.006341775627     0.518034072140    -0.390459564516
O                    -0.808245977776     1.365245881530     0.831062442776
O                     1.599061487954     1.490716957367    -0.369688242433
H                     1.889120408459     0.561747496475    -0.338910973062
H                     1.648756472182     1.751215737253    -1.283441852936
O                     2.028773428251    -1.177520752887    -0.264198188973
H                     2.677296663173    -1.657110465804     0.238925315112
H                     1.155039553402    -1.447994650197     0.069158804675
O                    -0.472304112208    -1.529343813935     0.743319257260
H                    -1.149081626563    -1.483521232115     0.061839341916
H                    -0.563561066153    -0.680867382139     1.180887076671
O                    -2.344915022502    -0.210987139686    -0.920736458347
H                    -3.293480487016    -0.154067447170    -0.891692805269
H                    -0.931785202246     2.085804666031     1.438999209127
N                    -0.256551303106    -0.737964909948    -5.908589064616
C                    -0.554136758704    -1.093558993634    -4.517188096731
C                     0.674321041993    -1.542950367633    -3.837733406074
N                     1.641866812445    -1.869113588692    -3.287638026645
H                    -1.260196759688    -1.924499603941    -4.511407560677
H                    -0.982783041934    -0.286365835086    -3.913436174889
H                     0.361384213723     0.066602016189    -5.929263055135
H                    -1.117533928091    -0.452655513662    -6.362511423229
N                     2.653182608028    -3.196937312033     3.994755143776
C                     2.037648603216    -3.410100952295     2.680723159697
C                     1.251521476122    -2.224762267591     2.293817221239
N                     0.655552052391    -1.284378755896     1.968807230783
H                     1.352668080080    -4.255857810111     2.747905397531
H                     2.741214036370    -3.613539463739     1.866215168690
H                     3.330484944465    -2.443761203164     3.934864131806
H                     3.170540793867    -4.030982758496     4.250580754422
N                    -2.016657439753     3.960115446987     1.907985057425
C                    -0.720190932255     4.642216145408     1.978085977456
C                     0.299057123880     3.732406820746     2.531349255089
N                     1.113181387324     3.013277402100     2.937780996521
H                    -0.808298334569     5.493219890520     2.654137857561
H                    -0.338951904919     5.013760810289     1.020784469248
H                    -1.962866428119     3.194937524895     1.243749466305
H                    -2.706431144228     4.609367385387     1.545463059782
N                     3.558620865429     3.672755690097    -1.097054325530
C                     2.237985633487     4.142537256875    -1.528596636880
C                     1.660254207069     3.198531177916    -2.502146219127
N                     1.185997240450     2.445433487818    -3.245823829902
H                     2.354515635922     5.105009371484    -2.027680423306
H                     1.505030412442     4.269408112271    -0.724547362475
H                     3.459580069263     2.801157738515    -0.587046897990
H                     3.946322273654     4.346321797298    -0.445337855397
N                    -3.464127326077    -0.801916155778     1.480927184262
C                    -4.316303881349     0.181646083724     0.804612652340
C                    -5.476219649285     0.511513820430     1.652257937241
N                    -6.375574697144     0.798847943976     2.325854106999
H                    -4.693860348600    -0.258296984639    -0.118922761861
H                    -3.822436961996     1.125092351404     0.548059708784
H                    -3.065763462733    -0.388542011516     2.317603758025
H                    -2.685312009840    -1.030226324213     0.872602261135
