17
0 1 C2H10N2O3
O                     0.583152862817     2.248980798194    -0.552874739850
H                    -0.144270514297     1.618377228742    -0.485590127394
H                     0.426056405293     2.757986884865    -1.340946751946
O                    -0.788883632351    -0.155855304127    -0.395538840222
H                    -1.273482362116    -0.562309313336     0.314286420661
H                     0.114934681314    -0.488307362410    -0.344087067031
O                     1.995292317339    -0.139618247557    -0.408629948857
H                     2.646244396282    -0.224721637850     0.279256371011
H                     1.802247438991     0.802545649112    -0.490479290895
N                    -2.628237337194     1.991600068019     3.531405244442
C                    -3.161677578306     3.142501513843     2.795288216021
C                    -2.263225634860     4.300722702890     2.950296677858
N                    -1.546335736504     5.207732489604     3.042678117501
H                    -4.128697341320     3.412630144190     3.220634825338
H                    -3.302149182326     2.981599938793     1.720954368037
H                    -1.751033536248     1.698063304926     3.114332950535
H                    -3.271223177116     1.213876587246     3.429163180157
