15
0 1 CH10O4
O                     0.583152862817     2.248980798194    -0.552874739850
H                    -0.144270514297     1.618377228742    -0.485590127394
H                     0.426056405293     2.757986884865    -1.340946751946
O                    -0.788883632351    -0.155855304127    -0.395538840222
H                    -1.273482362116    -0.562309313336     0.314286420661
H                     0.114934681314    -0.488307362410    -0.344087067031
O                     1.995292317339    -0.139618247557    -0.408629948857
H                     2.646244396282    -0.224721637850     0.279256371011
H                     1.802247438991     0.802545649112    -0.490479290895
C                    -1.735471138288     3.458583109982     3.280123863715
O                    -3.065113617243     3.606908397030     2.874634195304
H                    -3.342642785589     4.501143284950     3.041266838922
H                    -1.060652685592     4.112049299269     2.729628807323
H                    -1.451781627528     2.433725193319     3.077337653143
H                    -1.605977056207     3.641351493901     4.345615033507
