23
0 1 C2H14N2O5
H                     0.052268076664     1.508275607562     0.391705718637
H                    -2.006341775627     0.518034072140    -0.390459564516
O                    -0.808245977776     1.365245881530     0.831062442776
O                     1.599061487954     1.490716957367    -0.369688242433
H                     1.889120408459     0.561747496475    -0.338910973062
H                     1.648756472182     1.751215737253    -1.283441852936
O                     2.028773428251    -1.177520752887    -0.264198188973
H                     2.677296663173    -1.657110465804     0.238925315112
H                     1.155039553402    -1.447994650197     0.069158804675
O                    -0.472304112208    -1.529343813935     0.743319257260
H                    -1.149081626563    -1.483521232115     0.061839341916
H                    -0.563561066153    -0.680867382139     1.180887076671
O                    -2.344915022502    -0.210987139686    -0.920736458347
H                    -3.293480487016    -0.154067447170    -0.891692805269
H                    -0.931785202246     2.085804666031     1.438999209127
N                     1.740989424699     5.181357477199    -0.108366517900
C                     2.451259607197     5.075451241738    -1.387155416166
C                     1.585692016230     4.434006270602    -2.393167813619
N                     0.900427240264     3.957383654305    -3.198385341969
H                     3.327517297501     4.441207721551    -1.249590688401
H                     2.790524504561     6.027351840331    -1.809765634251
H                     0.950267002085     5.809150988660    -0.209524832549
H                     2.360756826029     5.604998918790     0.573655724708
