27
0 1 C3H18O6
O                     0.583152862817     2.248980798194    -0.552874739850
H                    -0.144270514297     1.618377228742    -0.485590127394
H                     0.426056405293     2.757986884865    -1.340946751946
O                    -0.788883632351    -0.155855304127    -0.395538840222
H                    -1.273482362116    -0.562309313336     0.314286420661
H                     0.114934681314    -0.488307362410    -0.344087067031
O                     1.995292317339    -0.139618247557    -0.408629948857
H                     2.646244396282    -0.224721637850     0.279256371011
H                     1.802247438991     0.802545649112    -0.490479290895
C                    -3.147685429051     2.898975219847     2.370419167971
O                    -3.521864179333     1.818268755303     1.566407237601
H                    -4.397072775817     1.537752106431     1.810876509511
H                    -3.806889656170     3.756086035102     2.242929365742
H                    -2.150805280853     3.192847094993     2.067425727659
H                    -3.117086931617     2.636584171049     3.426666823708
C                     0.148431852754     2.847451012880     4.393893410342
O                    -0.067357427241     2.803877550625     3.013347242908
H                     0.288982537016     3.592188793154     2.618338220202
H                     1.207209679364     2.882182648917     4.645341275511
H                    -0.267188050796     1.939175164397     4.811303065304
H                    -0.349413987088     3.694518515644     4.863010245875
C                    -1.499286384324    -3.303007259048     2.536362050262
O                    -1.011645605279    -4.606692108832     2.666683458577
H                    -1.471275706328    -5.172626857573     2.056025668301
H                    -1.335712490818    -2.898869463782     1.538685231065
H                    -0.957220300673    -2.686809692473     3.242337017760
H                    -2.560197070265    -3.233690563769     2.771113294913
