300
0 1 C20H200O80
O                     2.767240601457     0.355669364436     3.818911313538
H                     3.499167451261    -0.107730393975     3.283193033327
H                     2.081021925358     0.601841777323     3.127561745789
O                     4.002630216147     2.607695799732     4.444933684750
H                     4.121789017503     2.683959808605     5.409488127558
H                     3.468884793246     1.749069066397     4.309463260464
O                     0.168812467427     2.948444261282     3.929032852949
H                    -0.682398815695     3.172453758900     3.440609621897
H                     0.340406671281     2.036983935472     3.606206644547
O                     4.966505433546     1.903920775360    -2.974868423665
H                     4.184085817242     1.374321339486    -3.290286050574
H                     5.500577454038     1.211016400297    -2.479936302338
O                     6.020746063001     0.175391891732    -1.200928732173
H                     5.107977346538     0.201527419698    -0.798462544214
H                     6.526928359532     0.873044203482    -0.672156421446
O                     7.042937037649     2.293489200161     0.078308320982
H                     6.769913379327     2.276405920439     1.026762811743
H                     6.454658871293     2.974703680216    -0.330378498550
O                     3.631499341386     0.208851846140     0.056085603396
H                     3.448260376049     1.147005844286     0.375459819516
H                     2.727100139313    -0.199215624385    -0.138974667526
O                     0.727037262962     0.780534517743     2.095635810211
H                    -0.089111558406     0.271740440629     2.429807101750
H                     0.454945893174     1.552989795963     1.493665739164
O                     5.742430579654     1.834254574408     2.520505800197
H                     5.348723999649     2.163079535671     3.374876218349
H                     5.585318072185     0.847010134663     2.528128740794
O                     2.249133545196     3.997235603741     2.810664724611
H                     2.933570762090     3.844960098776     3.510363555138
H                     1.389593489037     3.622988907105     3.244308705588
O                     0.250998329128     2.567941451740     0.253598340809
H                     0.592907096381     3.508526463534     0.386246938203
H                    -0.728530161833     2.644444648713     0.034142868181
O                     3.673800947382     2.620418500485     1.037973743166
H                     4.474696500241     2.373326404065     1.607357166248
H                     3.035979877036     3.104138002314     1.657865236552
O                     4.818057806019     3.652565124128    -1.114686938823
H                     4.344396380725     3.230807077148    -0.331333086612
H                     4.790327882992     2.959173773737    -1.900361291311
O                     1.264193439365     5.045009433677     0.564215774781
H                     2.029756830012     5.243978768404    -0.055223721890
H                     1.674056170036     4.925427835605     1.468573658698
O                    -5.492132690649     2.136077384770     1.264863954517
H                    -5.760144088267     1.585086843880     0.457714315502
H                    -4.676349112684     1.662544999339     1.600086827009
O                    -1.952637046337     3.238976567844     2.363624336790
H                    -2.394852592147     4.055702250580     2.006126442837
H                    -2.620202389804     2.520600898633     2.379915454103
O                    -2.129647717616     2.696535842603    -0.891401831888
H                    -2.440100058882     1.954598245873    -1.492141020867
H                    -2.990526893748     3.133084900631    -0.600375691861
O                     1.133157229057     1.937335543325    -2.171055643847
H                     0.843146199090     2.090499896668    -1.214921209519
H                     1.470669369789     2.830913965749    -2.468685418036
O                     0.073569062801    -4.360627388799     4.199972188074
H                     0.638141137890    -3.575108482116     4.405708466343
H                     0.550963542269    -4.825876282888     3.461776509236
O                     1.598328969108     4.442301171005    -3.011428647430
H                     2.249910409092     4.962881538047    -2.415925529364
H                     1.933530272338     4.519694465213    -3.923453467737
O                    -5.278167219911     2.729314047426    -2.532709367523
H                    -4.988118364356     3.353353739799    -1.786428130786
H                    -5.733993558127     3.284781782067    -3.190294465839
O                    -1.655799154093    -3.080053829806     2.782986967874
H                    -1.058067427372    -3.652803777758     3.399120202375
H                    -2.608928052368    -3.386987793509     2.845705632977
O                    -2.965045968575     5.463760346489     1.112601906528
H                    -2.157165615209     5.792179524082     0.517668119640
H                    -3.256144304249     6.246313643539     1.615088503505
O                    -4.455278977508     3.903347384909    -0.357241094837
H                    -4.029030660808     4.677791295211     0.128223559348
H                    -4.899135194925     3.341395954120     0.364037116666
O                     3.180772144188     5.486298675946    -1.291870418211
H                     3.979842374343     4.743141717337    -1.258406939484
H                     3.590464109373     6.367681918503    -1.361443182343
O                    -1.043261721072     6.204317822594    -0.347525300705
H                    -1.117541405365     5.755965858473    -1.237804366722
H                    -0.181820378822     5.879446767615     0.036974680647
O                    -3.358086335639     0.642030643306     2.113940801359
H                    -2.936414433417     0.313434080220     1.257889240127
H                    -4.060276114424    -0.075181598056     2.275661891989
O                    -6.243855525436     0.770096005127    -0.889498423796
H                    -6.094659641333     1.418074002311    -1.629756983570
H                    -7.247456086623     0.685125501816    -0.666613364249
O                    -1.134580980342     4.590040531878    -2.607807112158
H                    -0.145166622985     4.552852513438    -2.700748648836
H                    -1.394766466152     3.861552323214    -1.971811555020
O                    -0.920970931477     2.014528829715    -3.925460113011
H                    -1.098876155664     2.985451295824    -3.879132341584
H                    -0.212885811642     1.900869163848    -3.212825455609
H                     4.284492499165    -0.388560839641     1.401017932881
O                     4.681091445384    -0.641875948932     2.305223641307
O                     1.188028931682    -0.743509094292    -0.076820862052
H                     0.295578069475    -1.270799830541     4.100806066870
H                    -1.432794542830    -1.508208200969     3.045675525392
O                     2.778154717382     0.274918864168    -3.435220925692
H                     3.036068778808    -0.626189734088    -3.054784284469
O                    -1.175561225552    -0.549739867595     3.268191002283
H                     1.830252978675    -1.060251341720     4.268754742461
H                     0.954350138734    -0.121872247463     0.675019529452
H                     1.399071164008    -0.106569236297    -4.201603964213
H                     2.270728076514     0.760829551241    -2.724064630663
O                     1.145112517019    -1.779618233931     4.138378289132
H                     4.831509919348    -1.626069475679     2.202033339086
O                     0.455366694892    -0.416306934323    -4.430381036285
H                     1.319619867877    -1.601381707768     0.440454872686
O                     1.771114456699    -2.669964743583     1.634344076844
H                    -2.010043820016    -0.025422615136     3.136315527502
H                     1.538239854358    -2.316428698862     2.547786017846
O                     5.471302783357    -2.483294328623    -0.878456654452
H                     5.913353654510    -1.592201213428    -0.944594164177
H                    -6.828052491931     1.271901450491     2.222479862780
H                    -2.348955258755     1.342973754668    -3.346431387494
O                    -7.431325291435     0.509351454178     2.419917949164
H                     4.839245638192    -2.850114218903     0.437706447965
O                     4.434780388068    -3.173839488803     1.349005586395
H                    -0.017128857756     0.382541935713    -4.753946499958
O                    -3.135881633940     1.034960184787    -2.791582578519
O                    -0.706041500949    -0.791141430422    -2.019848701131
H                     3.479290316954    -2.874969672488     1.381726301406
H                     0.030434410164    -0.819256435704    -1.337833385453
H                    -9.194730276479     1.181249319638     0.094940789347
H                     1.423464312506    -3.615872674854     1.635461307522
H                    -6.781922796826    -0.240003444885     2.482599238481
H                     2.683807823619    -4.992234209449    -3.176978716186
H                     4.724846912849    -2.401265516134    -1.537760319261
O                    -5.266973640209    -1.204329426016     2.160735841555
O                    -1.160619478375    -2.872298608183     0.228584631487
H                     0.238355851640    -3.087960245343    -0.817234978760
H                    -0.265159804508    -0.568643956139    -2.894273310994
H                    -8.222648007385     0.381686145036     1.034188961920
O                    -8.584506178677     0.421464671134     0.076090518125
H                     0.384527657321    -2.205638417043    -4.387574388850
O                     2.807756350786    -4.327269163419    -3.898494612924
H                    -1.720748232346    -3.611079975066    -0.175139807584
H                    -3.869408747381     1.690066749342    -2.940230769500
H                    -1.212455846979    -3.039850998836     1.226924896029
H                    -5.270823467918    -1.356473329901     1.169933928634
H                    -4.983787948488    -2.103010831285     2.513612769601
H                    -2.028621707853    -0.327880454026    -0.917551959853
O                     0.993177934472    -3.277394203617    -1.448931780703
H                     4.068019564548    -4.642699019613     1.076686887369
H                     1.879822272732    -4.099708585086    -4.159964046692
H                    -1.575638374200    -2.211635629998    -2.465767931780
O                     0.308774341498    -3.140541388537    -4.054392722196
H                    -4.429111354944    -3.937787629515     1.615699973064
O                    -2.502760826707    -0.630741573577    -0.091992928318
H                    -5.498771324592    -0.683044930486    -0.795390390042
H                     0.658799840479    -3.163259966336    -2.395408339345
O                    -4.951057962292    -1.504555396519    -0.569452194952
O                     3.284296976365    -2.172418867843    -2.459598916152
H                     2.512806949128    -2.351026405439    -1.859414892276
H                     3.211043668315    -2.964181949193    -3.105185191097
H                    -4.005872373790    -1.146737868946    -0.466293812701
O                    -4.268008258628    -3.639913259036     2.615040530703
O                     1.156863240947    -5.261981895705     1.839280837141
O                     3.628060176360    -5.560564061871     0.847536538985
O                    -2.061503991250    -2.961439943391    -2.930497454311
H                    -0.676859774953    -3.235858957349    -3.892369286167
H                     4.307245769822    -6.233579983526     1.035775419322
O                    -4.170245393676    -1.499523117041    -3.321962984705
H                     2.089804949404    -5.542941809868     1.599727330471
H                    -4.606266306389    -1.648922527991    -2.448342105065
H                    -4.728788023627    -4.299674842052     3.165482097863
H                    -1.985552334517    -1.490449929255     0.103561848124
H                     0.723485314396    -6.162570778439    -0.879719678743
H                    -2.923203339141    -2.483566066412    -3.218484656620
H                     0.575275848365    -5.659067012903     1.130183766435
H                    -2.264227997040    -4.220190800436    -1.901725901752
O                    -2.397641779389    -4.795686770645    -1.074768477103
H                    -3.788330607043    -0.584781225762    -3.214359662053
O                    -0.157860499456    -6.302944664595    -0.362375108633
H                    -3.902416075352    -4.536840595313    -0.308230088029
H                     2.780802228009    -5.645624922191    -0.715581661164
H                     1.719239103610    -4.683237751108    -1.394046949190
O                    -4.699019493022    -4.192181366007     0.187495867907
H                    -1.632033276384    -5.425042344438    -0.983087165369
H                    -4.916675196915    -3.321721404724    -0.232386775038
O                     2.095219141367    -5.627333292767    -1.443232616229
H                    -0.277618673379    -7.270409904859    -0.325938093199
C                    -5.430851419019     6.631101359708     1.479788765328
O                    -5.305222637789     5.825167923385     0.344420946100
H                    -5.251274709236     6.380218687551    -0.425938176520
H                    -4.573379228647     7.287935391518     1.616731471742
H                    -5.489357457810     5.970842186069     2.335692151650
H                    -6.334762783205     7.237643368394     1.457529508056
C                     5.492887974698     0.777442424174    -5.908143545031
O                     4.231021941374     1.377553246966    -5.864183338903
H                     3.575542005254     0.742123517851    -6.130679146531
H                     5.571299448193    -0.069190057881    -5.228064218886
H                     6.213180006259     1.524608561625    -5.600153460034
H                     5.757270513135     0.445121099120    -6.910694710767
C                    -7.355410243181    -4.788408885339     2.292729523941
O                    -6.178781016308    -5.517848205371     2.098221592316
H                    -6.089930654481    -5.723141387686     1.173881161992
H                    -7.348920461496    -3.842837309687     1.753011928751
H                    -7.425958566668    -4.571616502316     3.351011024661
H                    -8.241926790437    -5.349756096297     2.002174621512
C                    -4.721082060417    -2.599547698379     6.201000638207
O                    -4.401286979077    -1.239744975972     6.145873099567
H                    -4.627894398127    -0.833595735794     6.975413200051
H                    -4.165450450177    -3.123166320501     6.977235046060
H                    -4.451589765666    -3.030394845503     5.245134343263
H                    -5.785016015139    -2.767291952813     6.360220133533
C                     0.421080832445    -6.950774873167    -3.646820741461
O                     1.038372890952    -5.755963572428    -4.028590115489
H                     0.657914590506    -5.457788565791    -4.847606632829
H                    -0.647565905723    -6.827899554426    -3.478479987891
H                     0.875265297822    -7.261677851162    -2.714623580048
H                     0.570106384987    -7.744212609885    -4.377363268974
C                    -6.782029436617     3.907257343024     0.908493959454
O                    -6.843547795513     2.969841372458    -0.126802215819
H                    -7.365714805169     2.227441809315     0.157150983944
H                    -7.765059249760     4.290286947288     1.177535792104
H                    -6.183044470092     4.736373154513     0.553924198802
H                    -6.307975155454     3.504767045751     1.802204506843
C                    -6.553639277755     1.225556983523     5.019636349528
O                    -5.176682662219     0.983976458255     5.018789157980
H                    -4.729265357346     1.736000167329     5.391244536841
H                    -6.947176028918     1.367899096687     6.024778303386
H                    -7.031483028675     0.353727871460     4.591249738847
H                    -6.821439819422     2.090197117343     4.414553928008
C                    -3.271221975884    -2.219121026855    -5.886438510927
O                    -2.441446391541    -2.476836223485    -6.981621935720
H                    -2.097894883598    -3.360716012994    -6.909692883055
H                    -4.125231918520    -2.893377265806    -5.847859449645
H                    -3.644385764277    -1.209129507826    -5.998695603181
H                    -2.736305706070    -2.279309780382    -4.940031443836
C                    -2.186303139032    -4.289403798149    -5.531899437262
O                    -1.361896671337    -5.390482939708    -5.282199460296
H                    -0.503225106109    -5.226758759874    -5.656795837233
H                    -1.805745961825    -3.376909248399    -5.075859157991
H                    -3.152089225923    -4.507256477674    -5.094025965095
H                    -2.329145001863    -4.113728410310    -6.596877749668
C                    -1.891964333791    -6.834439147562     2.674656624528
O                    -0.541052238325    -6.564568215934     2.436796204468
H                    -0.017900599216    -7.290073976546     2.759904025107
H                    -2.231279783455    -7.730369424014     2.157339735679
H                    -2.457645151556    -5.992527741160     2.296336475186
H                    -2.111161742569    -6.940339011730     3.735873921037
C                     0.625591525710     9.186683438477     0.628514854084
O                    -0.672017814059     8.684606138905     0.492500991261
H                    -1.094389076882     9.111424300084    -0.244976927484
H                     1.238285939151     8.990617593268    -0.249896518674
H                     1.076799977831     8.681978101999     1.473274694409
H                     0.635285046773    10.256859525242     0.828698803971
C                     6.363144996520    -5.235244963131    -0.706774406094
O                     5.590878211222    -4.828568366111    -1.798831891143
H                     5.346560231077    -5.593482313443    -2.308400620192
H                     5.818294149548    -5.903381378768    -0.041812678004
H                     6.623362502843    -4.344251925930    -0.149680165919
H                     7.286162282730    -5.724664185070    -1.013290886020
C                     6.815916013692     3.210724452746    -3.114747396835
O                     7.365212870001     4.005363442899    -4.125288455813
H                     8.303330280836     3.854066545350    -4.163887451201
H                     6.962361912001     2.147834580536    -3.299846060227
H                     5.751250593187     3.405990631812    -3.097589259704
H                     7.220508155220     3.452824344279    -2.133351820504
C                     1.252767381531     2.362038228645     6.389359308389
O                     2.211747365766     1.866455102930     7.277687028150
H                     2.161936153055     0.916821520674     7.290328733039
H                     1.417960938308     2.018263111580     5.369568856197
H                     1.335949810922     3.441358666947     6.398514095301
H                     0.239176515534     2.097936603930     6.686560120948
C                    -3.853488826713     1.017011933163     7.167769507721
O                    -2.845116489405     1.820156965426     6.626923251625
H                    -2.975058985671     1.891166366308     5.687499217590
H                    -4.845186271519     1.438490145942     7.011772368226
H                    -3.677023017458     0.957025203619     8.234163967136
H                    -3.836857220907     0.005874226879     6.764323886829
C                    -6.997442894957     1.601453009106    -5.983847044111
O                    -6.324408362140     0.449466660040    -5.566326552982
H                    -6.320149861455    -0.182446543632    -6.277039212297
H                    -6.512099046638     2.077821652092    -6.834115867912
H                    -6.984109624246     2.297673573703    -5.154971367949
H                    -8.036216161387     1.401996085204    -6.241939025499
C                     4.973431029707     6.156979068690    -3.929949525464
O                     3.784370477636     6.710718923319    -3.446339579193
H                     3.992893043256     7.421804911864    -2.850252371197
H                     5.568408717137     6.878873120755    -4.487007278870
H                     4.701589505647     5.353804757051    -4.602964346430
H                     5.587677837412     5.738766429645    -3.134183557189
C                    -8.380992968578    -3.253172196321     1.666250425171
O                    -7.979505827251    -2.151296923524     2.427203999674
H                    -7.973485325208    -2.394468811666     3.346592982339
H                    -7.700839345952    -4.096922932747     1.770742312826
H                    -8.376958098182    -2.943862491530     0.628827190349
H                    -9.387632165853    -3.583495607523     1.917265169376
C                    -1.855476723724    -8.601223574692     0.318612359690
O                    -1.832373640472    -7.290447475113    -0.166880833022
H                    -2.689307890459    -7.074276986440    -0.518134197760
H                    -2.575022080949    -8.729958250433     1.125535325647
H                    -0.868938052916    -8.814695878729     0.709900954391
H                    -2.074238889538    -9.327099304260    -0.462855473191
C                     4.859477204812    -2.854114306481     6.909032041263
O                     5.725153419985    -2.091472746635     6.119504379079
H                     5.276337944253    -1.841318910251     5.319234027928
H                     3.969310747706    -2.298928041198     7.200261671095
H                     5.399049249810    -3.121304103562     7.808702732744
H                     4.550760437794    -3.773229895032     6.413688802161
