260
0 1 C20H160N20O60
O                     2.887897863336     0.662102371949     3.779962299177
H                     3.641214071871     0.223918971273     3.249537066390
H                     2.178738857729     0.845014607401     3.081599985071
O                     3.956803644332     2.992012918608     4.305989900007
H                     4.103258289939     3.113178322904     5.262098441694
H                     3.499972075794     2.080197631309     4.212615189448
O                    -0.165526758500     3.171780894201     3.793632941526
H                    -0.941092011187     3.265670420101     3.163267052019
H                    -0.140322053248     2.211814719441     3.970571332490
O                     4.667712189174     2.053769029128    -3.087719797802
H                     3.891427292523     1.451486637692    -3.248217885813
H                     5.305713534320     1.433949810766    -2.619043020745
O                     5.979563725015     0.469974764086    -1.354332035485
H                     5.089966064617     0.452780515903    -0.900741158769
H                     6.469972460712     1.203728973927    -0.860088230831
O                     6.929244615713     2.668383382157    -0.156827677835
H                     6.694476574977     2.681829663953     0.801346713473
H                     6.293210402179     3.303886497567    -0.568890118794
O                     3.662178448384     0.420224544341     0.020196238749
H                     3.440722521855     1.361130301025     0.306254579541
H                     2.773035954472    -0.032045447848    -0.151110103286
O                     0.893633440979     0.876383465143     2.019889453068
H                     0.078593129448     0.469049719988     2.473948122439
H                     0.604943316706     1.703612923920     1.515427823863
O                     5.719988142399     2.268470400155     2.359873729808
H                     5.328016173540     2.604508184384     3.211128675342
H                     5.625560940702     1.273250111530     2.408040402626
O                     2.038326294011     4.111474073058     2.687002482315
H                     2.725951131544     4.007008464343     3.396248976790
H                     1.196277349159     3.707251212555     3.095075789664
O                     0.111484879826     2.727382084931     0.332013502670
H                     0.491760132583     3.664480528004     0.346280961661
H                    -0.845215424861     2.839947682207     0.598982564061
O                     3.578168973222     2.870784272343     0.907017999545
H                     4.402644292164     2.691987966652     1.470175176483
H                     2.904793380401     3.299042054832     1.527966767830
O                     4.612080730952     3.888430884777    -1.299298642762
H                     4.181273436163     3.488298130187    -0.480074005317
H                     4.550528705802     3.158890497190    -2.045364784838
O                     1.049126168756     5.221384944133     0.429829782770
H                     1.792768049486     5.414792832756    -0.217804196309
H                     1.467869958843     5.121766852673     1.328962914873
O                    -5.634480709431     1.921812092808     1.143392791628
H                    -5.873826963847     1.283301112965     0.394103145407
H                    -4.767591927014     1.562046648048     1.476736370634
O                    -2.074708296182     3.192912718259     1.908935946539
H                    -2.616616229932     3.973808611119     1.580333567795
H                    -2.682983815325     2.418522096101     1.991386476222
O                    -2.483586111645     2.432631791491    -1.116162591809
H                    -2.764468522514     1.663789962812    -1.683946587355
H                    -3.355161684323     2.869683694872    -0.902556517065
O                     0.730798501114     1.823422126402    -2.099046965887
H                     0.412171636676     2.064561640674    -1.171261808884
H                     1.107022971116     2.684155768218    -2.444146015540
O                     0.451732369310    -4.151145663025     4.276178828846
H                     1.019642970504    -3.369640285021     4.478769487271
H                     0.915708406995    -4.610484203307     3.520345610075
O                     1.340471873609     4.219490455564    -3.124658192768
H                     1.937224744201     4.847632414343    -2.584168162896
H                     1.722378569123     4.184565283546    -4.020970932049
O                    -5.605125270432     2.214335105827    -2.699838130652
H                    -5.346543101611     2.926812036670    -2.024639300085
H                    -6.185255160807     2.656732170004    -3.345472237925
O                    -1.364727525993    -2.797124916035     3.070471446541
H                    -0.708492591579    -3.401467082137     3.599523824307
H                    -2.295581900234    -3.157502036733     3.165343453433
O                    -3.301663085432     5.267494424669     0.741301224092
H                    -2.492337072844     5.639326702655     0.163897966921
H                    -3.626974907985     6.025538006065     1.260699250492
O                    -4.891877846987     3.679735548089    -0.666546248703
H                    -4.412380147404     4.453733277335    -0.245794426897
H                    -5.238272766961     3.134939957802     0.113323061535
O                     2.843561914930     5.594273036490    -1.539403615588
H                     3.696917085436     4.925220117675    -1.477746479969
H                     3.175158928676     6.489455040491    -1.735256604555
O                    -1.374777458490     6.060927393500    -0.665517644624
H                    -1.409282728393     5.512546590568    -1.507333132366
H                    -0.507060788911     5.841852245825    -0.233271855673
O                    -3.308689489851     0.663123123038     2.039883159824
H                    -2.920825904686     0.265489566579     1.188127612649
H                    -3.983122918500    -0.053519332054     2.292952958435
O                    -6.337742976961     0.326053956549    -0.866993342542
H                    -6.268112580139     0.936311858191    -1.651771591634
H                    -7.323162930103     0.169360896105    -0.600794662626
O                    -1.427788198328     4.292587307081    -2.748707646057
H                    -0.442079721895     4.252179197688    -2.844967282599
H                    -1.701437349405     3.558107378322    -2.110758631245
O                    -1.156662227692     1.695351456933    -4.012000584563
H                    -1.376787151826     2.658068162540    -4.026644664267
H                    -0.521683828529     1.654405385988    -3.224962415399
H                     4.380621926362    -0.086632622471     1.370069712812
O                     4.823605292429    -0.273271228589     2.268550723963
O                     1.264148035960    -0.655980050919    -0.084320790115
H                     0.546496736266    -1.052981531659     4.219331596566
H                    -1.219425031467    -1.188788750780     3.271070583576
O                     2.568510333117     0.239502314067    -3.204613667778
H                     2.875389675149    -0.632758320844    -2.806582408186
O                    -1.060244208411    -0.192548806464     3.394137554428
H                     2.065781473521    -0.759294503404     4.279837766460
H                     1.020075070155    -0.016919139535     0.660793483869
H                     1.286889918723    -0.229257369184    -4.104750405629
H                     1.990778716195     0.690997977119    -2.523949235683
O                     1.412258873943    -1.519435002416     4.208993527077
H                     5.033270039433    -1.252247877679     2.199689988936
O                     0.391683942995    -0.604683808202    -4.405000257899
H                     1.494491334989    -1.467460915443     0.475474931470
O                     2.053836901397    -2.445000626152     1.687848486101
H                    -1.917831441909     0.215255176144     3.091511797025
H                     1.802861247513    -2.080700137988     2.587652916539
O                     5.654312255122    -2.207650110668    -0.885445603709
H                     6.008668355182    -1.287173711170    -1.030805418710
H                    -6.901665920949     1.061819505466     2.213455666221
H                    -2.617871813992     0.961344295095    -3.511279740810
O                    -7.425148555112     0.260852799440     2.475796697189
H                     5.110530425492    -2.541886178790     0.512708665530
O                     4.748317139250    -2.840051390357     1.439334019548
H                    -0.131817032449     0.168161330745    -4.720707471745
O                    -3.398384116875     0.606879549661    -2.983569504620
O                    -0.694358972088    -0.900518560375    -1.934361763197
H                     3.774562670171    -2.605770504870     1.459773907360
H                     0.071646736623    -0.809394747416    -1.287492545731
H                    -8.872899307532    -1.056935231562     0.132958626446
H                     1.779241486216    -3.422808455079     1.727558848883
H                    -6.703033714439    -0.416378209202     2.557799368323
H                     3.109228861710    -4.794522850662    -4.400464113807
H                     4.831668238586    -2.218195829295    -1.444294563763
O                    -5.120543918847    -1.270908539415     2.283988733528
O                    -1.086915591804    -2.817900265156     0.484374676134
H                     0.293303697575    -2.922761036953    -0.595926671505
H                    -0.313770716302    -0.697573056879    -2.838317498892
H                    -8.259728031340    -0.000490727195     1.133283601866
O                    -8.624038912544    -0.115781338392     0.182466927538
H                     0.405053959771    -2.371027441299    -4.264788432264
O                     2.711063741450    -4.495310540273    -3.562663366560
H                    -1.546479169987    -3.657543427530     0.155231626450
H                    -4.162203297102     1.223950433262    -3.136132225808
H                    -1.074635976421    -2.880637927721     1.499812439389
H                    -5.131853827575    -1.515244797341     1.311871734535
H                    -4.765177624783    -2.109363873579     2.712656665398
H                    -2.029939877701    -0.437045129913    -0.870475746638
O                     1.001524165065    -3.299801074872    -1.198394354341
H                     4.461428318327    -4.393589609705     1.164640574288
H                     1.780212076597    -4.185295151213    -3.801195651174
H                    -1.510047700329    -2.402375920426    -2.284187958165
O                     0.387597848245    -3.299323936949    -3.901837557659
H                    -4.084704982385    -3.971058413653     1.988787205389
O                    -2.519957212766    -0.726219541293    -0.049598520514
H                    -5.489635471641    -1.045276171711    -0.695344474682
H                     0.678751176015    -3.189692907770    -2.138018623742
O                    -4.881947450330    -1.811559634955    -0.426319633912
O                     3.255759698252    -2.199127621730    -2.217787971251
H                     2.518078088616    -2.468806292695    -1.598753565027
H                     3.246067198502    -2.973517465997    -2.850451669919
H                    -3.964147078818    -1.376190430436    -0.378447188916
O                    -3.933960286546    -3.568666273461     2.950023855255
O                     1.587098177665    -5.026366509961     1.955459603494
O                     4.074427635981    -5.325851944584     0.971487553285
O                    -1.926908931906    -3.213470363875    -2.704348429729
H                    -0.583890863938    -3.440232826556    -3.664554533437
H                     4.734798286091    -5.952116070404     1.320845754511
O                    -4.170763505791    -2.029218445118    -3.187010413237
H                     2.533432451139    -5.280866499944     1.742263741632
H                    -4.566875730688    -2.114547942248    -2.285721889437
H                    -4.334419030173    -4.209079089740     3.566723732714
H                    -1.963600455119    -1.548915380154     0.215363191797
H                     0.702063485352    -4.842445615119    -0.701593845869
H                    -2.836530493910    -2.838113913835    -3.012968219731
H                     1.064355708959    -5.393590024867     1.165441584540
H                    -2.037371510153    -4.430236491530    -1.555918648946
O                    -2.087626347995    -4.956322460606    -0.694553677551
H                    -3.893644089943    -1.069206581197    -3.206893717751
O                     0.480038333481    -5.759089924929    -0.348695443812
H                    -3.591933973160    -4.740417576557     0.103466220510
H                     3.361512758078    -5.923785901668    -0.664806319326
H                     2.840431202008    -5.742044555462    -2.133291928228
O                    -4.385534336618    -4.384974334835     0.596562806013
H                    -1.254056785306    -5.508908185030    -0.640850123034
H                    -4.673388329148    -3.580958197506     0.095409084719
O                     2.821354220685    -6.367567499806    -1.367080263747
H                     1.269419032570    -6.253522248964    -0.757159342152
N                    -3.044644264843    -1.654347848550     8.089207480421
C                    -1.607620236114    -1.504693929821     7.837083416737
C                    -1.098931629311    -0.300280496923     8.517777202292
N                    -0.684975490661     0.628905926626     9.074899367148
H                    -1.451928146114    -1.371979254069     6.766026355752
H                    -0.989031037261    -2.347896295779     8.162923834406
H                    -3.200355246470    -1.828262134632     9.076682821350
H                    -3.377621161084    -2.475277161587     7.595305169696
N                    -7.237408630675    -1.619147970058     4.665537456050
C                    -6.286549643336    -2.487515898031     5.367538339738
C                    -5.145569270068    -1.693499431948     5.857866275367
N                    -4.259359582093    -1.070998089477     6.272904443827
H                    -5.900169468895    -3.225096953414     4.663477988306
H                    -6.698801540320    -3.028656789414     6.226042695552
H                    -7.642491171307    -0.958679633834     5.320739224878
H                    -8.002221790915    -2.187910530685     4.318682998587
N                    -0.787372402781    -0.720202124353    -6.756071579900
C                    -1.390029038924    -2.053782406728    -6.659275325916
C                    -1.850444909922    -2.496748204112    -7.987627078153
N                    -2.188230878693    -2.865076392320    -9.034224986366
H                    -2.261968950111    -1.997548316207    -6.006914265023
H                    -0.729044601458    -2.834388686192    -6.267397502974
H                     0.054364994279    -0.767579301815    -7.320724740813
H                    -0.497527338662    -0.426383362724    -5.829573651754
N                    -6.171077312685     1.381061120361    -5.944555937850
C                    -6.127226259940     2.051109358009    -4.640671990432
C                    -4.849524392208     2.769543183794    -4.485589353826
N                    -3.859413891647     3.362025805967    -4.368210746941
H                    -6.180932338632     1.295291051452    -3.856535030035
H                    -6.930440894882     2.774462520980    -4.463411521051
H                    -6.171832337437     2.075832014573    -6.684077724194
H                    -7.047520029800     0.876408172427    -6.021442904719
N                     4.761777364865    -3.413807896865     7.011999168287
C                     4.690038911248    -3.583356994845     5.556970779274
C                     3.475556818271    -2.933018057660     5.032745296727
N                     2.537888033293    -2.398080043955     4.608775045585
H                     4.620798031188    -4.647948065952     5.331431456799
H                     5.541833024858    -3.178296679655     5.000025772365
H                     4.876503624443    -2.430490433574     7.234539707011
H                     5.591755555287    -3.886072310198     7.353818673927
N                    -4.836672297043    -6.046182955338     0.478175539739
C                    -4.451951087866    -5.858364717966    -0.924577041330
C                    -3.024469748819    -6.179404032513    -1.103324419296
N                    -1.909552083441    -6.458962823008    -1.258042495139
H                    -4.592514154874    -4.809845970562    -1.188900528883
H                    -5.013729636460    -6.462952496379    -1.644780689713
H                    -4.757948148609    -7.027512786692     0.723927272619
H                    -5.814982828444    -5.799797532748     0.582773675594
N                    -4.766491698800     3.431076679659     6.837821976383
C                    -4.912857945355     3.178160421815     5.400598543097
C                    -3.679923755256     2.571485161016     4.867177257113
N                    -2.724672787573     2.066391874142     4.445859607283
H                    -5.062255403641     4.130450986970     4.890853984336
H                    -5.743920123542     2.518854989554     5.127712454974
H                    -4.676225449261     2.548851876000     7.330905178994
H                    -5.616101099004     3.867259425346     7.179357504365
N                     2.727448253250     7.549835554368     3.035321273664
C                     2.028722664281     8.165772633461     4.168195922090
C                     1.459933131491     7.120808671013     5.038396263741
N                     1.035129976586     6.304354233931     5.744141711207
H                     1.202542780875     8.765908830300     3.785730515985
H                     2.647842897757     8.812654048462     4.799107467386
H                     3.529269744516     7.027913437341     3.373373418572
H                     3.091843315964     8.285209591526     2.439352061603
N                    -1.764198787902     2.817922982734    -9.157957778568
C                    -2.257217594939     2.390497230865    -7.844473641073
C                    -1.125990698512     2.000618427754    -6.983636788533
N                    -0.239499631139     1.720677984071    -6.290167876639
H                    -2.891784061395     1.513687714566    -7.976938402303
H                    -2.836543548712     3.143151126495    -7.298847057352
H                    -1.211979195898     3.662988502275    -9.055403261599
H                    -2.558480726316     3.060769982528    -9.740091419618
N                    -4.650009089476     7.717523716018    -2.683209324193
C                    -5.750879666421     7.131056409952    -1.911755513844
C                    -5.243911007263     6.599076422769    -0.633984048725
N                    -4.858078097309     6.205004996245     0.386296733778
H                    -6.169006330045     6.297240605232    -2.476501238435
H                    -6.569897623124     7.818913154106    -1.675371286531
H                    -4.283413152284     8.526110113494    -2.191889572885
H                    -5.016433599712     8.057444787832    -3.565776479048
