340
0 1 C40H200N40O60
O                     2.887897863336     0.662102371949     3.779962299177
H                     3.641214071871     0.223918971273     3.249537066390
H                     2.178738857729     0.845014607401     3.081599985071
O                     3.956803644332     2.992012918608     4.305989900007
H                     4.103258289939     3.113178322904     5.262098441694
H                     3.499972075794     2.080197631309     4.212615189448
O                    -0.165526758500     3.171780894201     3.793632941526
H                    -0.941092011187     3.265670420101     3.163267052019
H                    -0.140322053248     2.211814719441     3.970571332490
O                     4.667712189174     2.053769029128    -3.087719797802
H                     3.891427292523     1.451486637692    -3.248217885813
H                     5.305713534320     1.433949810766    -2.619043020745
O                     5.979563725015     0.469974764086    -1.354332035485
H                     5.089966064617     0.452780515903    -0.900741158769
H                     6.469972460712     1.203728973927    -0.860088230831
O                     6.929244615713     2.668383382157    -0.156827677835
H                     6.694476574977     2.681829663953     0.801346713473
H                     6.293210402179     3.303886497567    -0.568890118794
O                     3.662178448384     0.420224544341     0.020196238749
H                     3.440722521855     1.361130301025     0.306254579541
H                     2.773035954472    -0.032045447848    -0.151110103286
O                     0.893633440979     0.876383465143     2.019889453068
H                     0.078593129448     0.469049719988     2.473948122439
H                     0.604943316706     1.703612923920     1.515427823863
O                     5.719988142399     2.268470400155     2.359873729808
H                     5.328016173540     2.604508184384     3.211128675342
H                     5.625560940702     1.273250111530     2.408040402626
O                     2.038326294011     4.111474073058     2.687002482315
H                     2.725951131544     4.007008464343     3.396248976790
H                     1.196277349159     3.707251212555     3.095075789664
O                     0.111484879826     2.727382084931     0.332013502670
H                     0.491760132583     3.664480528004     0.346280961661
H                    -0.845215424861     2.839947682207     0.598982564061
O                     3.578168973222     2.870784272343     0.907017999545
H                     4.402644292164     2.691987966652     1.470175176483
H                     2.904793380401     3.299042054832     1.527966767830
O                     4.612080730952     3.888430884777    -1.299298642762
H                     4.181273436163     3.488298130187    -0.480074005317
H                     4.550528705802     3.158890497190    -2.045364784838
O                     1.049126168756     5.221384944133     0.429829782770
H                     1.792768049486     5.414792832756    -0.217804196309
H                     1.467869958843     5.121766852673     1.328962914873
O                    -5.634480709431     1.921812092808     1.143392791628
H                    -5.873826963847     1.283301112965     0.394103145407
H                    -4.767591927014     1.562046648048     1.476736370634
O                    -2.074708296182     3.192912718259     1.908935946539
H                    -2.616616229932     3.973808611119     1.580333567795
H                    -2.682983815325     2.418522096101     1.991386476222
O                    -2.483586111645     2.432631791491    -1.116162591809
H                    -2.764468522514     1.663789962812    -1.683946587355
H                    -3.355161684323     2.869683694872    -0.902556517065
O                     0.730798501114     1.823422126402    -2.099046965887
H                     0.412171636676     2.064561640674    -1.171261808884
H                     1.107022971116     2.684155768218    -2.444146015540
O                     0.451732369310    -4.151145663025     4.276178828846
H                     1.019642970504    -3.369640285021     4.478769487271
H                     0.915708406995    -4.610484203307     3.520345610075
O                     1.340471873609     4.219490455564    -3.124658192768
H                     1.937224744201     4.847632414343    -2.584168162896
H                     1.722378569123     4.184565283546    -4.020970932049
O                    -5.605125270432     2.214335105827    -2.699838130652
H                    -5.346543101611     2.926812036670    -2.024639300085
H                    -6.185255160807     2.656732170004    -3.345472237925
O                    -1.364727525993    -2.797124916035     3.070471446541
H                    -0.708492591579    -3.401467082137     3.599523824307
H                    -2.295581900234    -3.157502036733     3.165343453433
O                    -3.301663085432     5.267494424669     0.741301224092
H                    -2.492337072844     5.639326702655     0.163897966921
H                    -3.626974907985     6.025538006065     1.260699250492
O                    -4.891877846987     3.679735548089    -0.666546248703
H                    -4.412380147404     4.453733277335    -0.245794426897
H                    -5.238272766961     3.134939957802     0.113323061535
O                     2.843561914930     5.594273036490    -1.539403615588
H                     3.696917085436     4.925220117675    -1.477746479969
H                     3.175158928676     6.489455040491    -1.735256604555
O                    -1.374777458490     6.060927393500    -0.665517644624
H                    -1.409282728393     5.512546590568    -1.507333132366
H                    -0.507060788911     5.841852245825    -0.233271855673
O                    -3.308689489851     0.663123123038     2.039883159824
H                    -2.920825904686     0.265489566579     1.188127612649
H                    -3.983122918500    -0.053519332054     2.292952958435
O                    -6.337742976961     0.326053956549    -0.866993342542
H                    -6.268112580139     0.936311858191    -1.651771591634
H                    -7.323162930103     0.169360896105    -0.600794662626
O                    -1.427788198328     4.292587307081    -2.748707646057
H                    -0.442079721895     4.252179197688    -2.844967282599
H                    -1.701437349405     3.558107378322    -2.110758631245
O                    -1.156662227692     1.695351456933    -4.012000584563
H                    -1.376787151826     2.658068162540    -4.026644664267
H                    -0.521683828529     1.654405385988    -3.224962415399
H                     4.380621926362    -0.086632622471     1.370069712812
O                     4.823605292429    -0.273271228589     2.268550723963
O                     1.264148035960    -0.655980050919    -0.084320790115
H                     0.546496736266    -1.052981531659     4.219331596566
H                    -1.219425031467    -1.188788750780     3.271070583576
O                     2.568510333117     0.239502314067    -3.204613667778
H                     2.875389675149    -0.632758320844    -2.806582408186
O                    -1.060244208411    -0.192548806464     3.394137554428
H                     2.065781473521    -0.759294503404     4.279837766460
H                     1.020075070155    -0.016919139535     0.660793483869
H                     1.286889918723    -0.229257369184    -4.104750405629
H                     1.990778716195     0.690997977119    -2.523949235683
O                     1.412258873943    -1.519435002416     4.208993527077
H                     5.033270039433    -1.252247877679     2.199689988936
O                     0.391683942995    -0.604683808202    -4.405000257899
H                     1.494491334989    -1.467460915443     0.475474931470
O                     2.053836901397    -2.445000626152     1.687848486101
H                    -1.917831441909     0.215255176144     3.091511797025
H                     1.802861247513    -2.080700137988     2.587652916539
O                     5.654312255122    -2.207650110668    -0.885445603709
H                     6.008668355182    -1.287173711170    -1.030805418710
H                    -6.901665920949     1.061819505466     2.213455666221
H                    -2.617871813992     0.961344295095    -3.511279740810
O                    -7.425148555112     0.260852799440     2.475796697189
H                     5.110530425492    -2.541886178790     0.512708665530
O                     4.748317139250    -2.840051390357     1.439334019548
H                    -0.131817032449     0.168161330745    -4.720707471745
O                    -3.398384116875     0.606879549661    -2.983569504620
O                    -0.694358972088    -0.900518560375    -1.934361763197
H                     3.774562670171    -2.605770504870     1.459773907360
H                     0.071646736623    -0.809394747416    -1.287492545731
H                    -8.872899307532    -1.056935231562     0.132958626446
H                     1.779241486216    -3.422808455079     1.727558848883
H                    -6.703033714439    -0.416378209202     2.557799368323
H                     3.109228861710    -4.794522850662    -4.400464113807
H                     4.831668238586    -2.218195829295    -1.444294563763
O                    -5.120543918847    -1.270908539415     2.283988733528
O                    -1.086915591804    -2.817900265156     0.484374676134
H                     0.293303697575    -2.922761036953    -0.595926671505
H                    -0.313770716302    -0.697573056879    -2.838317498892
H                    -8.259728031340    -0.000490727195     1.133283601866
O                    -8.624038912544    -0.115781338392     0.182466927538
H                     0.405053959771    -2.371027441299    -4.264788432264
O                     2.711063741450    -4.495310540273    -3.562663366560
H                    -1.546479169987    -3.657543427530     0.155231626450
H                    -4.162203297102     1.223950433262    -3.136132225808
H                    -1.074635976421    -2.880637927721     1.499812439389
H                    -5.131853827575    -1.515244797341     1.311871734535
H                    -4.765177624783    -2.109363873579     2.712656665398
H                    -2.029939877701    -0.437045129913    -0.870475746638
O                     1.001524165065    -3.299801074872    -1.198394354341
H                     4.461428318327    -4.393589609705     1.164640574288
H                     1.780212076597    -4.185295151213    -3.801195651174
H                    -1.510047700329    -2.402375920426    -2.284187958165
O                     0.387597848245    -3.299323936949    -3.901837557659
H                    -4.084704982385    -3.971058413653     1.988787205389
O                    -2.519957212766    -0.726219541293    -0.049598520514
H                    -5.489635471641    -1.045276171711    -0.695344474682
H                     0.678751176015    -3.189692907770    -2.138018623742
O                    -4.881947450330    -1.811559634955    -0.426319633912
O                     3.255759698252    -2.199127621730    -2.217787971251
H                     2.518078088616    -2.468806292695    -1.598753565027
H                     3.246067198502    -2.973517465997    -2.850451669919
H                    -3.964147078818    -1.376190430436    -0.378447188916
O                    -3.933960286546    -3.568666273461     2.950023855255
O                     1.587098177665    -5.026366509961     1.955459603494
O                     4.074427635981    -5.325851944584     0.971487553285
O                    -1.926908931906    -3.213470363875    -2.704348429729
H                    -0.583890863938    -3.440232826556    -3.664554533437
H                     4.734798286091    -5.952116070404     1.320845754511
O                    -4.170763505791    -2.029218445118    -3.187010413237
H                     2.533432451139    -5.280866499944     1.742263741632
H                    -4.566875730688    -2.114547942248    -2.285721889437
H                    -4.334419030173    -4.209079089740     3.566723732714
H                    -1.963600455119    -1.548915380154     0.215363191797
H                     0.702063485352    -4.842445615119    -0.701593845869
H                    -2.836530493910    -2.838113913835    -3.012968219731
H                     1.064355708959    -5.393590024867     1.165441584540
H                    -2.037371510153    -4.430236491530    -1.555918648946
O                    -2.087626347995    -4.956322460606    -0.694553677551
H                    -3.893644089943    -1.069206581197    -3.206893717751
O                     0.480038333481    -5.759089924929    -0.348695443812
H                    -3.591933973160    -4.740417576557     0.103466220510
H                     3.361512758078    -5.923785901668    -0.664806319326
H                     2.840431202008    -5.742044555462    -2.133291928228
O                    -4.385534336618    -4.384974334835     0.596562806013
H                    -1.254056785306    -5.508908185030    -0.640850123034
H                    -4.673388329148    -3.580958197506     0.095409084719
O                     2.821354220685    -6.367567499806    -1.367080263747
H                     1.269419032570    -6.253522248964    -0.757159342152
N                    -0.480032337903    -6.979791681085    -4.211239799668
C                    -1.615790864541    -7.146473665187    -3.298403237395
C                    -2.079391482746    -8.545512268921    -3.320432620087
N                    -2.430933550695    -9.650695936472    -3.309503724242
H                    -2.437640771296    -6.518446416152    -3.643600200707
H                    -1.413224834023    -6.887603253538    -2.253526245222
H                     0.309434310148    -7.520819201543    -3.874147407591
H                    -0.191236288228    -6.007616213302    -4.196757171931
N                    -4.080288405883     3.122870235268    -6.662727111819
C                    -4.149640693622     4.335540007426    -5.840764098727
C                    -2.810386562610     4.672932278936    -5.325706156262
N                    -1.755063749884     4.962051571218    -4.941211694228
H                    -4.796059422528     4.141599269102    -4.984290947302
H                    -4.533285614562     5.223362040152    -6.354965821881
H                    -3.521478102224     3.304293588304    -7.490021648809
H                    -5.013888881758     2.897130471048    -6.988564121587
N                     6.695789257258    -7.349090475550    -1.912485587891
C                     5.916339621590    -6.215831125875    -2.421585211927
C                     5.954405926030    -5.103066851904    -1.455652251902
N                     6.004270564472    -4.212224720168    -0.714675863241
H                     4.876733805946    -6.526397832920    -2.530141683278
H                     6.249531861205    -5.819785746644    -3.386958609385
H                     7.674864671983    -7.089246409585    -1.853392204731
H                     6.638616681537    -8.109567986360    -2.581173332098
N                    -3.196544149241    -5.942059830114     2.480117418530
C                    -2.239966206201    -5.563178255501     3.525300793725
C                    -2.958549688593    -5.037653171934     4.700111852371
N                    -3.517890312486    -4.651077011422     5.639701730545
H                    -1.600699910558    -4.766822037674     3.142976566809
H                    -1.591405378529    -6.373035900682     3.876462092212
H                    -3.765893313390    -6.716668790788     2.804805166524
H                    -2.681069437389    -6.280165490714     1.674693040100
N                     6.555764972027     4.714680413196    -4.884920902368
C                     6.070557249253     4.191087313291    -3.603739948481
C                     4.610402974605     3.997061403895    -3.658724455812
N                     3.466150640434     3.813290102159    -3.703967133494
H                     6.279364850886     4.924292242478    -2.824107762551
H                     6.513605619448     3.238389419270    -3.294079367449
H                     6.412632664992     4.021301688973    -5.611790035146
H                     7.557248295194     4.860665503989    -4.818156095394
N                     7.496503328792    -0.481013374242     1.739314843416
C                     8.170874124026     0.631768817670     1.062601661134
C                     9.510337396455     0.837345326756     1.642512249889
N                    10.576941156041     0.986091357312     2.073050569193
H                     7.594223684939     1.542578567724     1.226663561863
H                     8.300059304202     0.507920040407    -0.018040497795
H                     7.995737359211    -1.344666698400     1.553659358596
H                     6.570575827220    -0.591083636381     1.340214799320
N                    -0.043651944527     7.620692922638     2.681416111963
C                    -0.228268400478     7.249858699329     4.088327496731
C                     1.048988275759     7.372095835646     4.813857176154
N                     2.043192602348     7.494537144407     5.398406648756
H                    -0.539895282314     6.206068578937     4.137391892228
H                    -0.969212403494     7.845917591052     4.631954748405
H                     0.198583559249     8.603995865306     2.617879323016
H                    -0.927793168746     7.509130227303     2.197075218502
N                    -6.040722380993    -2.618648963643    -4.569038784871
C                    -4.999493234879    -3.646619490076    -4.669633859172
C                    -4.988563730480    -4.474394059590    -3.450048000167
N                    -4.993537213078    -5.149057167023    -2.506683199319
H                    -4.028932387308    -3.155639560497    -4.746878777382
H                    -5.099248663700    -4.326235516281    -5.522854655709
H                    -6.953839449521    -3.060579536942    -4.546362022655
H                    -6.016589989857    -2.048311534595    -5.407412736872
N                    -1.789261604869    -0.579314724632    -8.468644273055
C                    -2.730145009108    -1.549267018410    -7.898616306839
C                    -2.220642215540    -2.919003180243    -8.090839081931
N                    -1.812324682324    -3.997824249887    -8.211479431307
H                    -3.679311084465    -1.470081295154    -8.429492763741
H                    -2.933648101339    -1.425226313865    -6.829497410305
H                    -0.916815847894    -0.607369853514    -7.951294347672
H                    -2.168677151038     0.353122402771    -8.344777879482
N                     3.028558494747     0.463991457909     6.179329534946
C                     3.925717271969    -0.294575807838     7.057214910848
C                     4.329172349257    -1.551468850699     6.401346230565
N                     4.675104101585    -2.528025032645     5.880000424563
H                     3.386916836136    -0.553532702918     7.969164397487
H                     4.842724047001     0.229240731852     7.347954686627
H                     3.532066117985     0.754486124096     5.347648965562
H                     2.746765258771     1.312845002552     6.657637252569
N                     6.046754424391     7.889536361460     2.033152856512
C                     6.515689773309     6.606054047634     2.565856990957
C                     5.365557407184     5.735494532243     2.869240471916
N                     4.467351472931     5.033400661535     3.082366000835
H                     7.049916467008     6.788273627160     3.498816956027
H                     7.182584204741     6.044294374791     1.902914539602
H                     5.590416197183     7.740380657782     1.139224647952
H                     6.851414512176     8.479759703866     1.851778690498
N                     1.312475996700    -7.435466320071     5.955998760018
C                     1.978488781857    -6.377821308408     6.723341514328
C                     1.061993271387    -5.239078762062     6.913134154207
N                     0.337112918860    -4.351672911337     7.092554126992
H                     2.838301454239    -6.021449365973     6.155241488860
H                     2.334000483235    -6.677706832752     7.715054633363
H                     0.539057007403    -7.810984306747     6.494894812880
H                     1.966384937976    -8.198571957747     5.818845864416
N                    -3.383236625599     0.166205422981     4.649871767990
C                    -3.984638630201     0.502845426752     5.944472110888
C                    -4.150411286768    -0.716536508523     6.755857945768
N                    -4.256500924467    -1.666908266528     7.412113015375
H                    -4.975344116451     0.924237584733     5.771417997070
H                    -3.417000724608     1.219800937790     6.547445422549
H                    -2.440687334458    -0.181302176746     4.792836595729
H                    -3.298096378114     1.014548719083     4.100505928140
N                     6.062856583106    -5.329607880380     3.257254930795
C                     6.279764496099    -4.098194434457     2.490721965787
C                     7.715663954462    -3.766104857272     2.465640034940
N                     8.846718709543    -3.514363902013     2.415902467821
H                     5.757911875915    -3.279823396895     2.987667759862
H                     5.935750164476    -4.131912320421     1.451331731647
H                     6.501962239117    -6.109535664700     2.779239747626
H                     5.068354075742    -5.527576853217     3.279862333754
N                    -3.061031517781     6.412100762519     6.756580441997
C                    -2.971925457526     5.093533856748     6.120622631069
C                    -3.710156204938     5.098055988227     4.844803380057
N                    -4.263534213482     5.102180686455     3.825544840922
H                    -3.441370970317     4.357269214345     6.773731911495
H                    -1.954323957449     4.749607627838     5.906107477503
H                    -2.584089844668     7.099492015939     6.182455411188
H                    -2.565548263680     6.380632403586     7.641026101865
N                    -1.187821240211    10.115579597741     0.015542098722
C                    -0.747136683448     8.746847486164    -0.273197291949
C                    -1.471300106689     7.792220037405     0.585286034362
N                    -2.058311920230     7.032402675166     1.235844945221
H                     0.314844321611     8.664304085881    -0.039960568350
H                    -0.887890307170     8.423027091369    -1.310088597839
H                    -2.163196441500    10.220622517626    -0.243704589674
H                    -0.662784105658    10.756430974925    -0.569593411182
N                     4.422285905570    -2.234070404767    -6.981005978739
C                     3.417490314072    -3.213466643760    -6.554192511362
C                     4.078862442637    -4.453764615209    -6.110382062481
N                     4.592885727236    -5.421867164755    -5.731317805312
H                     2.785078022205    -3.460886464919    -7.407336439617
H                     2.764832898066    -2.883429046460    -5.738761164331
H                     4.987024322224    -1.957207899163    -6.184753940028
H                     3.945777538633    -1.398145252059    -7.301797125050
N                    -8.540223767129    -4.274059680496    -0.200027667982
C                    -7.919820046079    -4.249543037912     1.128693169484
C                    -7.272161534344    -2.945596996841     1.358873593060
N                    -6.786080113537    -1.911858618732     1.559477720236
H                    -7.145898327848    -5.016688684295     1.168052624274
H                    -8.606029429825    -4.423675588427     1.964521710309
H                    -9.296325601544    -3.598264647134    -0.234823170417
H                    -8.960550178083    -5.185547724608    -0.345812793291
N                     1.724443931901     2.263675297903    -6.640834521436
C                     0.491099592421     2.420757266555    -7.418772752905
C                     0.727083391339     2.034657021566    -8.821612055536
N                     0.896813335631     1.704169089169    -9.920293839118
H                     0.201420160769     3.471935378155    -7.407509893323
H                    -0.361921048128     1.834997158205    -7.059529537259
H                     1.978879192928     1.282198159489    -6.601274799531
H                     1.545654473763     2.554451422865    -5.685731585786
N                     1.271443897416    -0.286988745456     8.005528280631
C                     0.334422597797     0.721745691942     7.500110803922
C                    -0.190690891736     1.527027287777     8.617472532457
N                    -0.585475993106     2.184546117232     9.487498912392
H                    -0.508799866312     0.213058677962     7.031890939636
H                     0.753924312527     1.418474377789     6.766351810320
H                     2.085521513889     0.172509066583     8.400166133150
H                     1.603531765359    -0.842491966720     7.224585349209
