15
0 1 H12O3
O                     0.583152862817     2.248980798194    -0.552874739850
H                    -0.144270514297     1.618377228742    -0.485590127394
H                     0.426056405293     2.757986884865    -1.340946751946
O                    -0.788883632351    -0.155855304127    -0.395538840222
H                    -1.273482362116    -0.562309313336     0.314286420661
H                     0.114934681314    -0.488307362410    -0.344087067031
O                     1.995292317339    -0.139618247557    -0.408629948857
H                     2.646244396282    -0.224721637850     0.279256371011
H                     1.802247438991     0.802545649112    -0.490479290895
H                    -0.032892104926    -0.810087773766     4.738126524991
H                     0.599344182600    -0.678409999592     4.377853625745
H                    -3.211560261691     3.501342263762    -0.335496023185
H                    -3.690094107320     3.454968501543     0.226387545918
H                    -3.044953156165    -2.182335368307    -0.239754689262
H                    -2.336017886682    -2.083514418814    -0.425505912824
