108
0 1 C7H72O29
O                     3.073072458366     1.109761658977     3.023892517026
H                     3.351393090608     1.369403044779     3.895923594863
H                     2.170771242847     1.448066210831     2.895920274518
O                    -4.778350189667     0.406423147594    -0.580906209218
H                    -5.722523065283     0.432410749363    -0.693853210969
H                    -4.495361859879    -0.522190171743    -0.714172367000
O                    -1.005284630618     2.662696822684    -3.808431080592
H                    -0.943563834981     3.603847270911    -3.678367027029
H                    -1.705052576981     2.361594233090    -3.215007607797
O                     1.699155727776    -3.807771307737     0.718923859758
H                     2.214958047948    -3.122678001062     1.150150712698
H                     1.779794502860    -3.656037923657    -0.230726195784
O                    -1.190194033781    -3.194757784564    -1.506342671381
H                    -0.306611922328    -3.334081518545    -1.867541382032
H                    -1.191996141480    -3.658178080342    -0.660854503293
O                     0.284033348944    -0.643609485848     1.246761537696
H                     0.374226513818     0.246665113913     1.624203348121
H                     1.175543418738    -1.017967436701     1.256036177954
O                    -1.897061728525     2.791226251752     2.375333493848
H                    -2.285492559909     3.265121695084     3.103230997867
H                    -2.465685290175     2.006746511525     2.217770963496
O                    -3.771298234168    -2.047600897227    -0.623646608957
H                    -3.180857114172    -2.005645013286     0.143248667811
H                    -3.245070202178    -2.441387891000    -1.317631696179
O                     3.917374338150     2.213707602199     0.471809844818
H                     3.746506689314     2.010816201781     1.395177562760
H                     3.118473852169     2.635147931182     0.136370433011
O                    -3.438224270951     0.667095809820     1.929638147494
H                    -3.117981823198    -0.231059159376     2.045925019459
H                    -3.970625811284     0.658392130605     1.126762344720
O                     4.461611059093    -0.175645446993    -0.543145345864
H                     5.400457501495    -0.263724988127    -0.672563734436
H                     4.299668793557     0.750825048607    -0.257759589307
O                    -2.135827930633    -1.889555566754     1.642090511528
H                    -1.264325543164    -1.474808567472     1.558831690114
H                    -1.934612593195    -2.819958288246     1.774036615590
O                    -2.519622587557     1.645236454170    -1.694976460795
H                    -1.995921487875     0.853806505749    -1.490613815437
H                    -3.423833667131     1.409719283716    -1.463986036246
O                    -0.847510133042    -0.468845499919    -1.209448294761
H                    -0.417090608730    -0.480608749472    -0.338729470571
H                    -1.060165699680    -1.397807621123    -1.386633112968
O                     2.755415448754    -1.030952630518    -2.640814741761
H                     2.197166041187    -0.267012385129    -2.830902715442
H                     3.389103925548    -0.729692086818    -1.981281175913
O                     1.584245071108    -3.329216977659    -2.066631014615
H                     1.986621447111    -2.457651237094    -2.290025671816
H                     1.973769246110    -3.957334922376    -2.666669128459
O                    -1.274108574552     3.747902441834    -0.314695749817
H                    -1.773278320523     3.067687746866    -0.786199222197
H                    -1.552185017969     3.659026335536     0.599537872042
O                     0.929936818000     1.066400804250    -2.588925016219
H                     0.419562236728     1.625082427887    -3.191886156804
H                     0.282493570263     0.456071791774    -2.201474437991
O                    -0.883554557196    -4.353022535478     1.110416304104
H                     0.078342823336    -4.171645527783     1.093579504543
H                    -0.985213166563    -5.276271760060     1.316026744033
O                     2.971690058336    -1.348193987307     1.511369399790
H                     3.543117872902    -1.056486970839     0.787655703093
H                     3.122541833183    -0.714645472593     2.218723323722
O                     1.298925736874     2.793130316025    -0.433528980186
H                     0.483480070308     3.319006572172    -0.484502996316
H                     1.246328072767     2.175668396924    -1.180957901749
O                     0.687599341775     1.910309844039     2.070901479997
H                     0.903012599028     2.241112271745     1.179070321346
H                    -0.169448660145     2.291196508145     2.313693090813
C                    -5.162863236405     5.154892584046     0.057196515698
O                    -4.322392636669     4.083156064814    -0.258019912744
H                    -4.456774389971     3.386485816007     0.375254922101
H                    -6.215613803378     4.880483698539     0.014082596225
H                    -4.985824703946     5.927625643259    -0.680012215891
H                    -4.950749631899     5.570375753497     1.040977988026
C                    -0.012882766276    -3.591647725331     4.573571420518
O                     0.484815152660    -4.893217141590     4.461387576974
H                    -0.225516165681    -5.477499305616     4.219543240991
H                    -0.424836847618    -3.224857775898     3.634847937733
H                     0.817809765754    -2.954289012990     4.848634173262
H                    -0.775431900030    -3.506411855525     5.346033779129
C                     5.017695734985    -3.475172799661     0.436284178375
O                     4.993228141837    -4.767425029813    -0.096498041459
H                     5.484482285754    -5.348041625636     0.474464869761
H                     4.554312534529    -3.425489499666     1.420281327459
H                     4.451648763633    -2.841850735751    -0.234856439788
H                     6.028465181556    -3.076556037236     0.506243035492
C                    -4.403221481623     0.460503074110    -3.613087414107
O                    -5.430371412955     0.298116506096    -2.678761446860
H                    -6.041360642794     1.022368296640    -2.759979760949
H                    -4.772341768739     0.455836657172    -4.637378015757
H                    -3.727901527685    -0.377268224424    -3.494689987630
H                    -3.838049425412     1.376742510436    -3.450206250612
C                    -1.109042951656    -1.296035238655    -4.745206450394
O                    -1.247252899903    -1.020603067300    -6.108807024723
H                    -0.400832221027    -1.115035200929    -6.532008524256
H                    -0.770324487972    -2.314441850107    -4.562010972839
H                    -2.086667463014    -1.180177497657    -4.294914295072
H                    -0.425238942921    -0.607038376909    -4.252114325854
C                    -3.544861167846    -3.852152945304     5.233996152540
O                    -2.932717601423    -3.487471163793     4.031224835903
H                    -3.592861933025    -3.441908153979     3.348159405092
H                    -4.289518253888    -3.125645304062     5.555111827359
H                    -2.768909467626    -3.894600757672     5.987675710023
H                    -4.015666544358    -4.832226113076     5.177046016459
C                     5.536706128495     1.314667742871    -4.599159530535
O                     4.705078709671     0.715028861483    -3.648790952884
H                     5.185483154405     0.022137996314    -3.208837851321
H                     6.416949052372     1.770352192802    -4.148641061995
H                     4.961699520203     2.095927254559    -5.079718278052
H                     5.861012524932     0.612626393002    -5.365584829147
