260
0 1 C20H160N20O60
O                     2.767240601457     0.355669364436     3.818911313538
H                     3.499167451261    -0.107730393975     3.283193033327
H                     2.081021925358     0.601841777323     3.127561745789
O                     4.002630216147     2.607695799732     4.444933684750
H                     4.121789017503     2.683959808605     5.409488127558
H                     3.468884793246     1.749069066397     4.309463260464
O                     0.168812467427     2.948444261282     3.929032852949
H                    -0.682398815695     3.172453758900     3.440609621897
H                     0.340406671281     2.036983935472     3.606206644547
O                     4.966505433546     1.903920775360    -2.974868423665
H                     4.184085817242     1.374321339486    -3.290286050574
H                     5.500577454038     1.211016400297    -2.479936302338
O                     6.020746063001     0.175391891732    -1.200928732173
H                     5.107977346538     0.201527419698    -0.798462544214
H                     6.526928359532     0.873044203482    -0.672156421446
O                     7.042937037649     2.293489200161     0.078308320982
H                     6.769913379327     2.276405920439     1.026762811743
H                     6.454658871293     2.974703680216    -0.330378498550
O                     3.631499341386     0.208851846140     0.056085603396
H                     3.448260376049     1.147005844286     0.375459819516
H                     2.727100139313    -0.199215624385    -0.138974667526
O                     0.727037262962     0.780534517743     2.095635810211
H                    -0.089111558406     0.271740440629     2.429807101750
H                     0.454945893174     1.552989795963     1.493665739164
O                     5.742430579654     1.834254574408     2.520505800197
H                     5.348723999649     2.163079535671     3.374876218349
H                     5.585318072185     0.847010134663     2.528128740794
O                     2.249133545196     3.997235603741     2.810664724611
H                     2.933570762090     3.844960098776     3.510363555138
H                     1.389593489037     3.622988907105     3.244308705588
O                     0.250998329128     2.567941451740     0.253598340809
H                     0.592907096381     3.508526463534     0.386246938203
H                    -0.728530161833     2.644444648713     0.034142868181
O                     3.673800947382     2.620418500485     1.037973743166
H                     4.474696500241     2.373326404065     1.607357166248
H                     3.035979877036     3.104138002314     1.657865236552
O                     4.818057806019     3.652565124128    -1.114686938823
H                     4.344396380725     3.230807077148    -0.331333086612
H                     4.790327882992     2.959173773737    -1.900361291311
O                     1.264193439365     5.045009433677     0.564215774781
H                     2.029756830012     5.243978768404    -0.055223721890
H                     1.674056170036     4.925427835605     1.468573658698
O                    -5.492132690649     2.136077384770     1.264863954517
H                    -5.760144088267     1.585086843880     0.457714315502
H                    -4.676349112684     1.662544999339     1.600086827009
O                    -1.952637046337     3.238976567844     2.363624336790
H                    -2.394852592147     4.055702250580     2.006126442837
H                    -2.620202389804     2.520600898633     2.379915454103
O                    -2.129647717616     2.696535842603    -0.891401831888
H                    -2.440100058882     1.954598245873    -1.492141020867
H                    -2.990526893748     3.133084900631    -0.600375691861
O                     1.133157229057     1.937335543325    -2.171055643847
H                     0.843146199090     2.090499896668    -1.214921209519
H                     1.470669369789     2.830913965749    -2.468685418036
O                     0.073569062801    -4.360627388799     4.199972188074
H                     0.638141137890    -3.575108482116     4.405708466343
H                     0.550963542269    -4.825876282888     3.461776509236
O                     1.598328969108     4.442301171005    -3.011428647430
H                     2.249910409092     4.962881538047    -2.415925529364
H                     1.933530272338     4.519694465213    -3.923453467737
O                    -5.278167219911     2.729314047426    -2.532709367523
H                    -4.988118364356     3.353353739799    -1.786428130786
H                    -5.733993558127     3.284781782067    -3.190294465839
O                    -1.655799154093    -3.080053829806     2.782986967874
H                    -1.058067427372    -3.652803777758     3.399120202375
H                    -2.608928052368    -3.386987793509     2.845705632977
O                    -2.965045968575     5.463760346489     1.112601906528
H                    -2.157165615209     5.792179524082     0.517668119640
H                    -3.256144304249     6.246313643539     1.615088503505
O                    -4.455278977508     3.903347384909    -0.357241094837
H                    -4.029030660808     4.677791295211     0.128223559348
H                    -4.899135194925     3.341395954120     0.364037116666
O                     3.180772144188     5.486298675946    -1.291870418211
H                     3.979842374343     4.743141717337    -1.258406939484
H                     3.590464109373     6.367681918503    -1.361443182343
O                    -1.043261721072     6.204317822594    -0.347525300705
H                    -1.117541405365     5.755965858473    -1.237804366722
H                    -0.181820378822     5.879446767615     0.036974680647
O                    -3.358086335639     0.642030643306     2.113940801359
H                    -2.936414433417     0.313434080220     1.257889240127
H                    -4.060276114424    -0.075181598056     2.275661891989
O                    -6.243855525436     0.770096005127    -0.889498423796
H                    -6.094659641333     1.418074002311    -1.629756983570
H                    -7.247456086623     0.685125501816    -0.666613364249
O                    -1.134580980342     4.590040531878    -2.607807112158
H                    -0.145166622985     4.552852513438    -2.700748648836
H                    -1.394766466152     3.861552323214    -1.971811555020
O                    -0.920970931477     2.014528829715    -3.925460113011
H                    -1.098876155664     2.985451295824    -3.879132341584
H                    -0.212885811642     1.900869163848    -3.212825455609
H                     4.284492499165    -0.388560839641     1.401017932881
O                     4.681091445384    -0.641875948932     2.305223641307
O                     1.188028931682    -0.743509094292    -0.076820862052
H                     0.295578069475    -1.270799830541     4.100806066870
H                    -1.432794542830    -1.508208200969     3.045675525392
O                     2.778154717382     0.274918864168    -3.435220925692
H                     3.036068778808    -0.626189734088    -3.054784284469
O                    -1.175561225552    -0.549739867595     3.268191002283
H                     1.830252978675    -1.060251341720     4.268754742461
H                     0.954350138734    -0.121872247463     0.675019529452
H                     1.399071164008    -0.106569236297    -4.201603964213
H                     2.270728076514     0.760829551241    -2.724064630663
O                     1.145112517019    -1.779618233931     4.138378289132
H                     4.831509919348    -1.626069475679     2.202033339086
O                     0.455366694892    -0.416306934323    -4.430381036285
H                     1.319619867877    -1.601381707768     0.440454872686
O                     1.771114456699    -2.669964743583     1.634344076844
H                    -2.010043820016    -0.025422615136     3.136315527502
H                     1.538239854358    -2.316428698862     2.547786017846
O                     5.471302783357    -2.483294328623    -0.878456654452
H                     5.913353654510    -1.592201213428    -0.944594164177
H                    -6.828052491931     1.271901450491     2.222479862780
H                    -2.348955258755     1.342973754668    -3.346431387494
O                    -7.431325291435     0.509351454178     2.419917949164
H                     4.839245638192    -2.850114218903     0.437706447965
O                     4.434780388068    -3.173839488803     1.349005586395
H                    -0.017128857756     0.382541935713    -4.753946499958
O                    -3.135881633940     1.034960184787    -2.791582578519
O                    -0.706041500949    -0.791141430422    -2.019848701131
H                     3.479290316954    -2.874969672488     1.381726301406
H                     0.030434410164    -0.819256435704    -1.337833385453
H                    -9.194730276479     1.181249319638     0.094940789347
H                     1.423464312506    -3.615872674854     1.635461307522
H                    -6.781922796826    -0.240003444885     2.482599238481
H                     2.683807823619    -4.992234209449    -3.176978716186
H                     4.724846912849    -2.401265516134    -1.537760319261
O                    -5.266973640209    -1.204329426016     2.160735841555
O                    -1.160619478375    -2.872298608183     0.228584631487
H                     0.238355851640    -3.087960245343    -0.817234978760
H                    -0.265159804508    -0.568643956139    -2.894273310994
H                    -8.222648007385     0.381686145036     1.034188961920
O                    -8.584506178677     0.421464671134     0.076090518125
H                     0.384527657321    -2.205638417043    -4.387574388850
O                     2.807756350786    -4.327269163419    -3.898494612924
H                    -1.720748232346    -3.611079975066    -0.175139807584
H                    -3.869408747381     1.690066749342    -2.940230769500
H                    -1.212455846979    -3.039850998836     1.226924896029
H                    -5.270823467918    -1.356473329901     1.169933928634
H                    -4.983787948488    -2.103010831285     2.513612769601
H                    -2.028621707853    -0.327880454026    -0.917551959853
O                     0.993177934472    -3.277394203617    -1.448931780703
H                     4.068019564548    -4.642699019613     1.076686887369
H                     1.879822272732    -4.099708585086    -4.159964046692
H                    -1.575638374200    -2.211635629998    -2.465767931780
O                     0.308774341498    -3.140541388537    -4.054392722196
H                    -4.429111354944    -3.937787629515     1.615699973064
O                    -2.502760826707    -0.630741573577    -0.091992928318
H                    -5.498771324592    -0.683044930486    -0.795390390042
H                     0.658799840479    -3.163259966336    -2.395408339345
O                    -4.951057962292    -1.504555396519    -0.569452194952
O                     3.284296976365    -2.172418867843    -2.459598916152
H                     2.512806949128    -2.351026405439    -1.859414892276
H                     3.211043668315    -2.964181949193    -3.105185191097
H                    -4.005872373790    -1.146737868946    -0.466293812701
O                    -4.268008258628    -3.639913259036     2.615040530703
O                     1.156863240947    -5.261981895705     1.839280837141
O                     3.628060176360    -5.560564061871     0.847536538985
O                    -2.061503991250    -2.961439943391    -2.930497454311
H                    -0.676859774953    -3.235858957349    -3.892369286167
H                     4.307245769822    -6.233579983526     1.035775419322
O                    -4.170245393676    -1.499523117041    -3.321962984705
H                     2.089804949404    -5.542941809868     1.599727330471
H                    -4.606266306389    -1.648922527991    -2.448342105065
H                    -4.728788023627    -4.299674842052     3.165482097863
H                    -1.985552334517    -1.490449929255     0.103561848124
H                     0.723485314396    -6.162570778439    -0.879719678743
H                    -2.923203339141    -2.483566066412    -3.218484656620
H                     0.575275848365    -5.659067012903     1.130183766435
H                    -2.264227997040    -4.220190800436    -1.901725901752
O                    -2.397641779389    -4.795686770645    -1.074768477103
H                    -3.788330607043    -0.584781225762    -3.214359662053
O                    -0.157860499456    -6.302944664595    -0.362375108633
H                    -3.902416075352    -4.536840595313    -0.308230088029
H                     2.780802228009    -5.645624922191    -0.715581661164
H                     1.719239103610    -4.683237751108    -1.394046949190
O                    -4.699019493022    -4.192181366007     0.187495867907
H                    -1.632033276384    -5.425042344438    -0.983087165369
H                    -4.916675196915    -3.321721404724    -0.232386775038
O                     2.095219141367    -5.627333292767    -1.443232616229
H                    -0.277618673379    -7.270409904859    -0.325938093199
N                     4.867260882987    -1.849566962595     5.786422663417
C                     5.037407384995    -3.115483117202     5.065654070735
C                     3.767383412914    -3.863555772258     5.053560683396
N                     2.764351299178    -4.444478306593     5.013713507138
H                     5.775311455440    -3.721708974255     5.591965987897
H                     5.366353347919    -3.016686906744     4.025534524563
H                     4.219618923916    -1.254510829936     5.280391304101
H                     5.756424628656    -1.361809473516     5.801204731370
N                    -3.160534492030    -1.708578177813    -8.958416943036
C                    -2.731211962659    -1.564215216257    -7.563482394327
C                    -3.060657992755    -2.784758716677    -6.805551829308
N                    -3.289375786396    -3.753034910433    -6.209513596663
H                    -3.277876268181    -0.735322569382    -7.112803394589
H                    -1.661463080656    -1.374123543628    -7.424495730354
H                    -2.623852495450    -2.444916238262    -9.404934958866
H                    -2.944177177342    -0.851378635415    -9.455545192122
N                     1.710517273617     0.127259472555     8.858809080572
C                     0.274613026199     0.294870596587     8.611652435115
C                    -0.099317037253    -0.361915174261     7.346137280415
N                    -0.407092048756    -0.901851197928     6.366915220101
H                     0.058512769925     1.358866951886     8.510514551998
H                    -0.380592129363    -0.106666901243     9.392221873262
H                     1.918125807316    -0.855247233039     9.004338846126
H                     1.949730286502     0.603911368227     9.721547827757
N                    -2.031987772339    -4.990406706535     6.727689975139
C                    -1.756093729823    -4.727986685285     5.311349933085
C                    -2.426281320998    -5.737151904683     4.471615450600
N                    -2.974941317826    -6.509524012121     3.802626858566
H                    -0.682401937840    -4.814404816357     5.141838036264
H                    -2.073209618696    -3.743218562048     4.951510985611
H                    -3.022180607582    -4.864728251441     6.910235056858
H                    -1.545025334977    -4.298757735612     7.287357133121
N                    -6.836092567049    -5.751039118098    -2.659012214684
C                    -6.143644670831    -5.686588900493    -1.367748111845
C                    -4.687498495505    -5.792589424750    -1.570533851449
N                    -3.539119891450    -5.845161233258    -1.724140448770
H                    -6.457243314580    -6.535484948650    -0.759432539280
H                    -6.325637127499    -4.774848703441    -0.788590653388
H                    -6.591369761045    -4.939643377020    -3.216997287650
H                    -7.835594433777    -5.697979577539    -2.494942884307
N                    -4.268498668317     7.721071066033    -0.343070390606
C                    -3.456929261862     8.844805040704     0.136072548575
C                    -2.261550947741     8.341166080974     0.836171347114
N                    -1.303488218116     7.953091507564     1.362142960995
H                    -4.043921580514     9.420362961690     0.852445033330
H                    -3.111521992942     9.533120311619    -0.642856667765
H                    -3.752317113297     7.204979566392    -1.047914913872
H                    -5.094801230875     8.089132977561    -0.801865063718
N                     6.447962424739    -1.549367789626    -4.623192409897
C                     6.389945430359    -0.428202795685    -3.679463640963
C                     7.738961827845     0.129795321500    -3.475716989629
N                     8.792372024795     0.593618490472    -3.333143403769
H                     6.034486054024    -0.798325688403    -2.717344043045
H                     5.738215021699     0.398923272449    -3.981000954928
H                     6.730053349354    -1.210398739365    -5.537043785890
H                     5.514659256497    -1.931207861730    -4.732194236788
N                    -5.809305227942     5.867254635808     5.009994613747
C                    -4.464439442491     5.304285200360     5.169375730376
C                    -4.091406726002     4.540665022515     3.965029153727
N                    -3.778545146731     3.963259034790     3.009073009785
H                    -4.471914509809     4.612734386518     6.012416670827
H                    -3.671775701529     6.039156730838     5.346753417801
H                    -5.805293530216     6.550354553098     4.259689312413
H                    -6.053954335435     6.369470098258     5.856554995406
N                     5.375331617188     5.665222190547     4.410063615954
C                     4.090574769467     4.963368354622     4.498392251385
C                     3.678709769817     4.840929718206     5.908390776624
N                     3.333082553682     4.767068803591     7.013025824993
H                     4.213622605271     3.956080825304     4.099333975246
H                     3.264275207343     5.438278643425     3.958481088463
H                     5.263649544767     6.620848620045     4.732406426266
H                     5.649826282321     5.719442883493     3.435152931712
N                     3.638456973935     6.239048215065    -3.195812016695
C                     3.011693019072     6.341056425357    -4.517841582960
C                     2.179373087199     7.555511085788    -4.588998216818
N                     1.546475190574     8.524575361997    -4.663071675460
H                     2.357523119347     5.480753173950    -4.662605126373
H                     3.710004315203     6.375740514822    -5.361033825759
H                     4.288272835322     7.007700693555    -3.067311575954
H                     4.188105209205     5.387318624033    -3.161438109743
