300
0 1 C20H200O80
O                     2.767240601457     0.355669364436     3.818911313538
H                     3.499167451261    -0.107730393975     3.283193033327
H                     2.081021925358     0.601841777323     3.127561745789
O                     4.002630216147     2.607695799732     4.444933684750
H                     4.121789017503     2.683959808605     5.409488127558
H                     3.468884793246     1.749069066397     4.309463260464
O                     0.168812467427     2.948444261282     3.929032852949
H                    -0.682398815695     3.172453758900     3.440609621897
H                     0.340406671281     2.036983935472     3.606206644547
O                     4.966505433546     1.903920775360    -2.974868423665
H                     4.184085817242     1.374321339486    -3.290286050574
H                     5.500577454038     1.211016400297    -2.479936302338
O                     6.020746063001     0.175391891732    -1.200928732173
H                     5.107977346538     0.201527419698    -0.798462544214
H                     6.526928359532     0.873044203482    -0.672156421446
O                     7.042937037649     2.293489200161     0.078308320982
H                     6.769913379327     2.276405920439     1.026762811743
H                     6.454658871293     2.974703680216    -0.330378498550
O                     3.631499341386     0.208851846140     0.056085603396
H                     3.448260376049     1.147005844286     0.375459819516
H                     2.727100139313    -0.199215624385    -0.138974667526
O                     0.727037262962     0.780534517743     2.095635810211
H                    -0.089111558406     0.271740440629     2.429807101750
H                     0.454945893174     1.552989795963     1.493665739164
O                     5.742430579654     1.834254574408     2.520505800197
H                     5.348723999649     2.163079535671     3.374876218349
H                     5.585318072185     0.847010134663     2.528128740794
O                     2.249133545196     3.997235603741     2.810664724611
H                     2.933570762090     3.844960098776     3.510363555138
H                     1.389593489037     3.622988907105     3.244308705588
O                     0.250998329128     2.567941451740     0.253598340809
H                     0.592907096381     3.508526463534     0.386246938203
H                    -0.728530161833     2.644444648713     0.034142868181
O                     3.673800947382     2.620418500485     1.037973743166
H                     4.474696500241     2.373326404065     1.607357166248
H                     3.035979877036     3.104138002314     1.657865236552
O                     4.818057806019     3.652565124128    -1.114686938823
H                     4.344396380725     3.230807077148    -0.331333086612
H                     4.790327882992     2.959173773737    -1.900361291311
O                     1.264193439365     5.045009433677     0.564215774781
H                     2.029756830012     5.243978768404    -0.055223721890
H                     1.674056170036     4.925427835605     1.468573658698
O                    -5.492132690649     2.136077384770     1.264863954517
H                    -5.760144088267     1.585086843880     0.457714315502
H                    -4.676349112684     1.662544999339     1.600086827009
O                    -1.952637046337     3.238976567844     2.363624336790
H                    -2.394852592147     4.055702250580     2.006126442837
H                    -2.620202389804     2.520600898633     2.379915454103
O                    -2.129647717616     2.696535842603    -0.891401831888
H                    -2.440100058882     1.954598245873    -1.492141020867
H                    -2.990526893748     3.133084900631    -0.600375691861
O                     1.133157229057     1.937335543325    -2.171055643847
H                     0.843146199090     2.090499896668    -1.214921209519
H                     1.470669369789     2.830913965749    -2.468685418036
O                     0.073569062801    -4.360627388799     4.199972188074
H                     0.638141137890    -3.575108482116     4.405708466343
H                     0.550963542269    -4.825876282888     3.461776509236
O                     1.598328969108     4.442301171005    -3.011428647430
H                     2.249910409092     4.962881538047    -2.415925529364
H                     1.933530272338     4.519694465213    -3.923453467737
O                    -5.278167219911     2.729314047426    -2.532709367523
H                    -4.988118364356     3.353353739799    -1.786428130786
H                    -5.733993558127     3.284781782067    -3.190294465839
O                    -1.655799154093    -3.080053829806     2.782986967874
H                    -1.058067427372    -3.652803777758     3.399120202375
H                    -2.608928052368    -3.386987793509     2.845705632977
O                    -2.965045968575     5.463760346489     1.112601906528
H                    -2.157165615209     5.792179524082     0.517668119640
H                    -3.256144304249     6.246313643539     1.615088503505
O                    -4.455278977508     3.903347384909    -0.357241094837
H                    -4.029030660808     4.677791295211     0.128223559348
H                    -4.899135194925     3.341395954120     0.364037116666
O                     3.180772144188     5.486298675946    -1.291870418211
H                     3.979842374343     4.743141717337    -1.258406939484
H                     3.590464109373     6.367681918503    -1.361443182343
O                    -1.043261721072     6.204317822594    -0.347525300705
H                    -1.117541405365     5.755965858473    -1.237804366722
H                    -0.181820378822     5.879446767615     0.036974680647
O                    -3.358086335639     0.642030643306     2.113940801359
H                    -2.936414433417     0.313434080220     1.257889240127
H                    -4.060276114424    -0.075181598056     2.275661891989
O                    -6.243855525436     0.770096005127    -0.889498423796
H                    -6.094659641333     1.418074002311    -1.629756983570
H                    -7.247456086623     0.685125501816    -0.666613364249
O                    -1.134580980342     4.590040531878    -2.607807112158
H                    -0.145166622985     4.552852513438    -2.700748648836
H                    -1.394766466152     3.861552323214    -1.971811555020
O                    -0.920970931477     2.014528829715    -3.925460113011
H                    -1.098876155664     2.985451295824    -3.879132341584
H                    -0.212885811642     1.900869163848    -3.212825455609
H                     4.284492499165    -0.388560839641     1.401017932881
O                     4.681091445384    -0.641875948932     2.305223641307
O                     1.188028931682    -0.743509094292    -0.076820862052
H                     0.295578069475    -1.270799830541     4.100806066870
H                    -1.432794542830    -1.508208200969     3.045675525392
O                     2.778154717382     0.274918864168    -3.435220925692
H                     3.036068778808    -0.626189734088    -3.054784284469
O                    -1.175561225552    -0.549739867595     3.268191002283
H                     1.830252978675    -1.060251341720     4.268754742461
H                     0.954350138734    -0.121872247463     0.675019529452
H                     1.399071164008    -0.106569236297    -4.201603964213
H                     2.270728076514     0.760829551241    -2.724064630663
O                     1.145112517019    -1.779618233931     4.138378289132
H                     4.831509919348    -1.626069475679     2.202033339086
O                     0.455366694892    -0.416306934323    -4.430381036285
H                     1.319619867877    -1.601381707768     0.440454872686
O                     1.771114456699    -2.669964743583     1.634344076844
H                    -2.010043820016    -0.025422615136     3.136315527502
H                     1.538239854358    -2.316428698862     2.547786017846
O                     5.471302783357    -2.483294328623    -0.878456654452
H                     5.913353654510    -1.592201213428    -0.944594164177
H                    -6.828052491931     1.271901450491     2.222479862780
H                    -2.348955258755     1.342973754668    -3.346431387494
O                    -7.431325291435     0.509351454178     2.419917949164
H                     4.839245638192    -2.850114218903     0.437706447965
O                     4.434780388068    -3.173839488803     1.349005586395
H                    -0.017128857756     0.382541935713    -4.753946499958
O                    -3.135881633940     1.034960184787    -2.791582578519
O                    -0.706041500949    -0.791141430422    -2.019848701131
H                     3.479290316954    -2.874969672488     1.381726301406
H                     0.030434410164    -0.819256435704    -1.337833385453
H                    -9.194730276479     1.181249319638     0.094940789347
H                     1.423464312506    -3.615872674854     1.635461307522
H                    -6.781922796826    -0.240003444885     2.482599238481
H                     2.683807823619    -4.992234209449    -3.176978716186
H                     4.724846912849    -2.401265516134    -1.537760319261
O                    -5.266973640209    -1.204329426016     2.160735841555
O                    -1.160619478375    -2.872298608183     0.228584631487
H                     0.238355851640    -3.087960245343    -0.817234978760
H                    -0.265159804508    -0.568643956139    -2.894273310994
H                    -8.222648007385     0.381686145036     1.034188961920
O                    -8.584506178677     0.421464671134     0.076090518125
H                     0.384527657321    -2.205638417043    -4.387574388850
O                     2.807756350786    -4.327269163419    -3.898494612924
H                    -1.720748232346    -3.611079975066    -0.175139807584
H                    -3.869408747381     1.690066749342    -2.940230769500
H                    -1.212455846979    -3.039850998836     1.226924896029
H                    -5.270823467918    -1.356473329901     1.169933928634
H                    -4.983787948488    -2.103010831285     2.513612769601
H                    -2.028621707853    -0.327880454026    -0.917551959853
O                     0.993177934472    -3.277394203617    -1.448931780703
H                     4.068019564548    -4.642699019613     1.076686887369
H                     1.879822272732    -4.099708585086    -4.159964046692
H                    -1.575638374200    -2.211635629998    -2.465767931780
O                     0.308774341498    -3.140541388537    -4.054392722196
H                    -4.429111354944    -3.937787629515     1.615699973064
O                    -2.502760826707    -0.630741573577    -0.091992928318
H                    -5.498771324592    -0.683044930486    -0.795390390042
H                     0.658799840479    -3.163259966336    -2.395408339345
O                    -4.951057962292    -1.504555396519    -0.569452194952
O                     3.284296976365    -2.172418867843    -2.459598916152
H                     2.512806949128    -2.351026405439    -1.859414892276
H                     3.211043668315    -2.964181949193    -3.105185191097
H                    -4.005872373790    -1.146737868946    -0.466293812701
O                    -4.268008258628    -3.639913259036     2.615040530703
O                     1.156863240947    -5.261981895705     1.839280837141
O                     3.628060176360    -5.560564061871     0.847536538985
O                    -2.061503991250    -2.961439943391    -2.930497454311
H                    -0.676859774953    -3.235858957349    -3.892369286167
H                     4.307245769822    -6.233579983526     1.035775419322
O                    -4.170245393676    -1.499523117041    -3.321962984705
H                     2.089804949404    -5.542941809868     1.599727330471
H                    -4.606266306389    -1.648922527991    -2.448342105065
H                    -4.728788023627    -4.299674842052     3.165482097863
H                    -1.985552334517    -1.490449929255     0.103561848124
H                     0.723485314396    -6.162570778439    -0.879719678743
H                    -2.923203339141    -2.483566066412    -3.218484656620
H                     0.575275848365    -5.659067012903     1.130183766435
H                    -2.264227997040    -4.220190800436    -1.901725901752
O                    -2.397641779389    -4.795686770645    -1.074768477103
H                    -3.788330607043    -0.584781225762    -3.214359662053
O                    -0.157860499456    -6.302944664595    -0.362375108633
H                    -3.902416075352    -4.536840595313    -0.308230088029
H                     2.780802228009    -5.645624922191    -0.715581661164
H                     1.719239103610    -4.683237751108    -1.394046949190
O                    -4.699019493022    -4.192181366007     0.187495867907
H                    -1.632033276384    -5.425042344438    -0.983087165369
H                    -4.916675196915    -3.321721404724    -0.232386775038
O                     2.095219141367    -5.627333292767    -1.443232616229
H                    -0.277618673379    -7.270409904859    -0.325938093199
C                     4.398090150755    -3.570762995281     4.567766134846
O                     5.237735032955    -2.674170263046     3.900316263138
H                     5.935960067908    -2.406475990746     4.487910076358
H                     4.921296041111    -4.474056396903     4.877216357353
H                     3.617371659263    -3.854849066150     3.873713201815
H                     3.927814385379    -3.123318204944     5.441881858679
C                    -5.485228425621    -3.223213860434    -4.717741835654
O                    -6.174650386004    -4.015352276596    -5.640555722019
H                    -6.064397028550    -3.646315080885    -6.510096206147
H                    -4.415787424211    -3.190488954340    -4.919404491880
H                    -5.630430519355    -3.669192671144    -3.742060029088
H                    -5.865129094998    -2.203421773084    -4.683918442338
C                     6.128922918496     0.377069121499    -7.229287056975
O                     5.181305771294     0.477078888763    -6.206354419299
H                     4.373316534425     0.827951420538    -6.564804938067
H                     5.810301568086    -0.297001270416    -8.022730402971
H                     7.033083980241    -0.024134380843    -6.789441336052
H                     6.366320319081     1.344787096799    -7.668159282335
C                    -0.608064335101     7.716192009817    -2.897503456314
O                    -1.332893315104     7.832388191392    -1.707758614608
H                    -2.239065170872     7.594911705273    -1.871778122951
H                    -0.608368516746     6.698067529195    -3.283334059054
H                     0.415145776645     7.992362251086    -2.676807258922
H                    -0.979053824295     8.383446519882    -3.673765434300
C                     4.761538462522    -3.817676319764    -4.457947565264
O                     4.527833358883    -4.450504592544    -3.233495980016
H                     5.153956723565    -5.158093158943    -3.125177627826
H                     5.755933721541    -3.377566380659    -4.512022718601
H                     4.034982084059    -3.020401476757    -4.549622992547
H                     4.632358452408    -4.492395736945    -5.302643168767
C                    -3.056714495388     4.478042096153    -5.232672383997
O                    -3.977606097910     5.088640697958    -6.089118176959
H                    -4.631378659635     5.543075712869    -5.569007454692
H                    -2.528306808926     5.200044851801    -4.612236933481
H                    -2.329104816146     3.971727521194    -5.854094496005
H                    -3.523232742727     3.737258021074    -4.585336220560
C                     5.968290239554    -0.182248768941     5.986586594531
O                     7.112638894561    -0.781815004882     5.452397615291
H                     7.881143542105    -0.420384287066     5.880431910369
H                     5.861575738821    -0.373579965102     7.053098293157
H                     5.114769320162    -0.614337413427     5.479894197627
H                     5.950881145423     0.893856600300     5.821848654040
C                    -5.387547768348    -0.896112572709     5.223410475742
O                    -6.286640926405    -1.901025541005     4.854421583327
H                    -6.901999387260    -2.043486861920     5.565395312219
H                    -5.884964196759     0.053727684997     5.412680621919
H                    -4.703779325613    -0.759039275944     4.395396363580
H                    -4.804890469406    -1.165976164650     6.102687762337
C                    -5.046620878827     3.750030422151     2.773317746629
O                    -4.357917567555     4.676685542387     3.561587644543
H                    -4.255678514288     4.323166643008     4.438523486025
H                    -4.509066612992     2.807910590067     2.679039254312
H                    -5.145600380396     4.181575628101     1.785437426380
H                    -6.045491728190     3.544963055626     3.154957419322
C                    -0.123501705806    -1.397293520171     7.162548608318
O                    -0.006590574069    -1.254477163682     8.548299905674
H                     0.373296712416    -2.047216116601     8.911198672199
H                     0.841590301671    -1.541121737572     6.679481666658
H                    -0.557277398991    -0.481273724138     6.782177569194
H                    -0.778166460308    -2.222257349055     6.886336419171
C                    -0.091485955383    -6.109947777328    -4.825223352294
O                    -0.542190048704    -6.981653554059    -5.820897119330
H                    -1.422536363225    -6.730367770578    -6.078366978822
H                    -0.042916885631    -5.078533460861    -5.170575861956
H                     0.909400487641    -6.422353745604    -4.555845232819
H                    -0.710883737015    -6.149416332583    -3.930665888529
C                    -0.349465513073     6.862645255993    -4.812845463412
O                     0.514919483247     6.046678995472    -5.548650478365
H                     1.274143738377     6.555701449594    -5.811175869381
H                     0.114033529567     7.240441678651    -3.902965631177
H                    -1.199722599724     6.255019386545    -4.530375251031
H                    -0.715091039805     7.707220328804    -5.394614623074
C                    -1.086060319721     1.518460120408    -7.825473533323
O                    -1.316472925090     1.873919549661    -9.157738524574
H                    -0.616895408438     2.447233018425    -9.451588624078
H                    -0.151113886903     0.975030431753    -7.698973911617
H                    -1.897064776586     0.868202544219    -7.523194540455
H                    -1.079708171736     2.382391670068    -7.162882884270
C                    -2.994824040245    -4.714795911414    -6.013105945311
O                    -3.809446545200    -5.833052542113    -6.213764043271
H                    -3.756378601307    -6.396973057178    -5.449812240652
H                    -3.309697318433    -4.123315789007    -5.154939940114
H                    -3.077898850867    -4.095880818775    -6.897401387644
H                    -1.947691096829    -4.984406112139    -5.885562336344
C                    -4.378824824679    -0.645657364611     6.692228476725
O                    -3.071375424094    -0.412497451085     7.128787652621
H                    -2.469125381261    -0.906807984985     6.583446575882
H                    -4.535200907975    -0.320559144439     5.664950294004
H                    -5.036654614538    -0.070503015334     7.331284953603
H                    -4.660116252489    -1.694383475396     6.772808333218
C                     1.606081960297    -8.794391306822    -1.014224767378
O                     1.785408644431    -7.633102673280    -0.256846367027
H                     2.251483896360    -7.852631812668     0.542544481017
H                     2.552285833923    -9.245919667733    -1.307930687258
H                     1.074806662530    -8.510601008971    -1.913749845165
H                     1.011032108971    -9.540903629954    -0.490698777727
C                     4.909308801429     5.228962947002    -4.531884099303
O                     4.702733576193     4.629824826008    -3.285797595932
H                     4.339390628900     3.760587417544    -3.415617249000
H                     5.617148367163     4.673354250135    -5.144831835166
H                     5.321999275193     6.212935917979    -4.349074085013
H                     3.982771904673     5.348825876846    -5.090996520816
C                    -4.945107877860     0.860212497515    -5.259415529111
O                    -6.292203309154     0.763906859599    -5.620567169450
H                    -6.526082575597     1.517712303049    -6.151154346339
H                    -4.284673165556     0.860907931622    -6.125018395031
H                    -4.712119539461    -0.009785243349    -4.658785779271
H                    -4.739932956068     1.748017215563    -4.663470505741
C                     1.816831509999     8.271100668735     3.448013689508
O                     0.723895606655     7.459482334555     3.766035974274
H                     0.550932426649     7.523140215123     4.699029176965
H                     1.629757020613     9.320679432176     3.668989636432
H                     1.986382952234     8.176220501929     2.383032090912
H                     2.724359213033     7.962371661848     3.964273605089
C                     0.914301901595     2.122846964942    -6.341283262460
O                     2.051208546985     2.585536398200    -7.010411911827
H                     2.498480216998     3.219711045973    -6.460670626037
H                     1.160797250167     1.620730723219    -5.407172924343
H                     0.430300946283     1.405453533303    -6.991687351943
H                     0.205165978698     2.921861313984    -6.131171979851
