33
0 1 C6H18N6O3
O                     0.583152862817     2.248980798194    -0.552874739850
H                    -0.144270514297     1.618377228742    -0.485590127394
H                     0.426056405293     2.757986884865    -1.340946751946
O                    -0.788883632351    -0.155855304127    -0.395538840222
H                    -1.273482362116    -0.562309313336     0.314286420661
H                     0.114934681314    -0.488307362410    -0.344087067031
O                     1.995292317339    -0.139618247557    -0.408629948857
H                     2.646244396282    -0.224721637850     0.279256371011
H                     1.802247438991     0.802545649112    -0.490479290895
N                     1.378087488402    -2.057144539428     2.747692170865
C                     1.997936652903    -0.737736278934     2.908781487406
C                     2.216998782818    -0.454656740162     4.338675752823
N                     2.420160968506    -0.237171082075     5.459638426442
H                     1.315878648499     0.019363631326     2.520692530959
H                     2.960543342567    -0.612187334670     2.401395407972
H                     2.022721318452    -2.776066515315     3.059458210432
H                     1.216955932936    -2.222252099617     1.760010969417
N                    -1.338265813194     4.384730130136     1.211027973403
C                    -2.720428161914     4.426683960869     1.699769234667
C                    -3.016574758217     3.211601653933     2.479892322420
N                    -3.248050115470     2.272645380801     3.120136399962
H                    -3.394526663723     4.444091811434     0.842853479424
H                    -2.962708068950     5.286773588728     2.333299889650
H                    -0.698231527958     4.418187629161     1.997689500686
H                    -1.162757915234     5.218114533719     0.660205451569
N                     0.984067487319    -3.682975795402    -0.403986424125
C                     0.977910542223    -3.765282002584    -1.868291273766
C                     0.649101017060    -2.449644500141    -2.445960823492
N                     0.420616812824    -1.410975979048    -2.908664687412
H                     0.202122834020    -4.466895861936    -2.176362465753
H                     1.921632183140    -4.091351792116    -2.318716379570
H                     1.734468088176    -3.070880489941    -0.100938695523
H                     1.190951720295    -4.601808120684    -0.027576916728
