340
0 1 C40H200N40O60
O                     2.887897863336     0.662102371949     3.779962299177
H                     3.641214071871     0.223918971273     3.249537066390
H                     2.178738857729     0.845014607401     3.081599985071
O                     3.956803644332     2.992012918608     4.305989900007
H                     4.103258289939     3.113178322904     5.262098441694
H                     3.499972075794     2.080197631309     4.212615189448
O                    -0.165526758500     3.171780894201     3.793632941526
H                    -0.941092011187     3.265670420101     3.163267052019
H                    -0.140322053248     2.211814719441     3.970571332490
O                     4.667712189174     2.053769029128    -3.087719797802
H                     3.891427292523     1.451486637692    -3.248217885813
H                     5.305713534320     1.433949810766    -2.619043020745
O                     5.979563725015     0.469974764086    -1.354332035485
H                     5.089966064617     0.452780515903    -0.900741158769
H                     6.469972460712     1.203728973927    -0.860088230831
O                     6.929244615713     2.668383382157    -0.156827677835
H                     6.694476574977     2.681829663953     0.801346713473
H                     6.293210402179     3.303886497567    -0.568890118794
O                     3.662178448384     0.420224544341     0.020196238749
H                     3.440722521855     1.361130301025     0.306254579541
H                     2.773035954472    -0.032045447848    -0.151110103286
O                     0.893633440979     0.876383465143     2.019889453068
H                     0.078593129448     0.469049719988     2.473948122439
H                     0.604943316706     1.703612923920     1.515427823863
O                     5.719988142399     2.268470400155     2.359873729808
H                     5.328016173540     2.604508184384     3.211128675342
H                     5.625560940702     1.273250111530     2.408040402626
O                     2.038326294011     4.111474073058     2.687002482315
H                     2.725951131544     4.007008464343     3.396248976790
H                     1.196277349159     3.707251212555     3.095075789664
O                     0.111484879826     2.727382084931     0.332013502670
H                     0.491760132583     3.664480528004     0.346280961661
H                    -0.845215424861     2.839947682207     0.598982564061
O                     3.578168973222     2.870784272343     0.907017999545
H                     4.402644292164     2.691987966652     1.470175176483
H                     2.904793380401     3.299042054832     1.527966767830
O                     4.612080730952     3.888430884777    -1.299298642762
H                     4.181273436163     3.488298130187    -0.480074005317
H                     4.550528705802     3.158890497190    -2.045364784838
O                     1.049126168756     5.221384944133     0.429829782770
H                     1.792768049486     5.414792832756    -0.217804196309
H                     1.467869958843     5.121766852673     1.328962914873
O                    -5.634480709431     1.921812092808     1.143392791628
H                    -5.873826963847     1.283301112965     0.394103145407
H                    -4.767591927014     1.562046648048     1.476736370634
O                    -2.074708296182     3.192912718259     1.908935946539
H                    -2.616616229932     3.973808611119     1.580333567795
H                    -2.682983815325     2.418522096101     1.991386476222
O                    -2.483586111645     2.432631791491    -1.116162591809
H                    -2.764468522514     1.663789962812    -1.683946587355
H                    -3.355161684323     2.869683694872    -0.902556517065
O                     0.730798501114     1.823422126402    -2.099046965887
H                     0.412171636676     2.064561640674    -1.171261808884
H                     1.107022971116     2.684155768218    -2.444146015540
O                     0.451732369310    -4.151145663025     4.276178828846
H                     1.019642970504    -3.369640285021     4.478769487271
H                     0.915708406995    -4.610484203307     3.520345610075
O                     1.340471873609     4.219490455564    -3.124658192768
H                     1.937224744201     4.847632414343    -2.584168162896
H                     1.722378569123     4.184565283546    -4.020970932049
O                    -5.605125270432     2.214335105827    -2.699838130652
H                    -5.346543101611     2.926812036670    -2.024639300085
H                    -6.185255160807     2.656732170004    -3.345472237925
O                    -1.364727525993    -2.797124916035     3.070471446541
H                    -0.708492591579    -3.401467082137     3.599523824307
H                    -2.295581900234    -3.157502036733     3.165343453433
O                    -3.301663085432     5.267494424669     0.741301224092
H                    -2.492337072844     5.639326702655     0.163897966921
H                    -3.626974907985     6.025538006065     1.260699250492
O                    -4.891877846987     3.679735548089    -0.666546248703
H                    -4.412380147404     4.453733277335    -0.245794426897
H                    -5.238272766961     3.134939957802     0.113323061535
O                     2.843561914930     5.594273036490    -1.539403615588
H                     3.696917085436     4.925220117675    -1.477746479969
H                     3.175158928676     6.489455040491    -1.735256604555
O                    -1.374777458490     6.060927393500    -0.665517644624
H                    -1.409282728393     5.512546590568    -1.507333132366
H                    -0.507060788911     5.841852245825    -0.233271855673
O                    -3.308689489851     0.663123123038     2.039883159824
H                    -2.920825904686     0.265489566579     1.188127612649
H                    -3.983122918500    -0.053519332054     2.292952958435
O                    -6.337742976961     0.326053956549    -0.866993342542
H                    -6.268112580139     0.936311858191    -1.651771591634
H                    -7.323162930103     0.169360896105    -0.600794662626
O                    -1.427788198328     4.292587307081    -2.748707646057
H                    -0.442079721895     4.252179197688    -2.844967282599
H                    -1.701437349405     3.558107378322    -2.110758631245
O                    -1.156662227692     1.695351456933    -4.012000584563
H                    -1.376787151826     2.658068162540    -4.026644664267
H                    -0.521683828529     1.654405385988    -3.224962415399
H                     4.380621926362    -0.086632622471     1.370069712812
O                     4.823605292429    -0.273271228589     2.268550723963
O                     1.264148035960    -0.655980050919    -0.084320790115
H                     0.546496736266    -1.052981531659     4.219331596566
H                    -1.219425031467    -1.188788750780     3.271070583576
O                     2.568510333117     0.239502314067    -3.204613667778
H                     2.875389675149    -0.632758320844    -2.806582408186
O                    -1.060244208411    -0.192548806464     3.394137554428
H                     2.065781473521    -0.759294503404     4.279837766460
H                     1.020075070155    -0.016919139535     0.660793483869
H                     1.286889918723    -0.229257369184    -4.104750405629
H                     1.990778716195     0.690997977119    -2.523949235683
O                     1.412258873943    -1.519435002416     4.208993527077
H                     5.033270039433    -1.252247877679     2.199689988936
O                     0.391683942995    -0.604683808202    -4.405000257899
H                     1.494491334989    -1.467460915443     0.475474931470
O                     2.053836901397    -2.445000626152     1.687848486101
H                    -1.917831441909     0.215255176144     3.091511797025
H                     1.802861247513    -2.080700137988     2.587652916539
O                     5.654312255122    -2.207650110668    -0.885445603709
H                     6.008668355182    -1.287173711170    -1.030805418710
H                    -6.901665920949     1.061819505466     2.213455666221
H                    -2.617871813992     0.961344295095    -3.511279740810
O                    -7.425148555112     0.260852799440     2.475796697189
H                     5.110530425492    -2.541886178790     0.512708665530
O                     4.748317139250    -2.840051390357     1.439334019548
H                    -0.131817032449     0.168161330745    -4.720707471745
O                    -3.398384116875     0.606879549661    -2.983569504620
O                    -0.694358972088    -0.900518560375    -1.934361763197
H                     3.774562670171    -2.605770504870     1.459773907360
H                     0.071646736623    -0.809394747416    -1.287492545731
H                    -8.872899307532    -1.056935231562     0.132958626446
H                     1.779241486216    -3.422808455079     1.727558848883
H                    -6.703033714439    -0.416378209202     2.557799368323
H                     3.109228861710    -4.794522850662    -4.400464113807
H                     4.831668238586    -2.218195829295    -1.444294563763
O                    -5.120543918847    -1.270908539415     2.283988733528
O                    -1.086915591804    -2.817900265156     0.484374676134
H                     0.293303697575    -2.922761036953    -0.595926671505
H                    -0.313770716302    -0.697573056879    -2.838317498892
H                    -8.259728031340    -0.000490727195     1.133283601866
O                    -8.624038912544    -0.115781338392     0.182466927538
H                     0.405053959771    -2.371027441299    -4.264788432264
O                     2.711063741450    -4.495310540273    -3.562663366560
H                    -1.546479169987    -3.657543427530     0.155231626450
H                    -4.162203297102     1.223950433262    -3.136132225808
H                    -1.074635976421    -2.880637927721     1.499812439389
H                    -5.131853827575    -1.515244797341     1.311871734535
H                    -4.765177624783    -2.109363873579     2.712656665398
H                    -2.029939877701    -0.437045129913    -0.870475746638
O                     1.001524165065    -3.299801074872    -1.198394354341
H                     4.461428318327    -4.393589609705     1.164640574288
H                     1.780212076597    -4.185295151213    -3.801195651174
H                    -1.510047700329    -2.402375920426    -2.284187958165
O                     0.387597848245    -3.299323936949    -3.901837557659
H                    -4.084704982385    -3.971058413653     1.988787205389
O                    -2.519957212766    -0.726219541293    -0.049598520514
H                    -5.489635471641    -1.045276171711    -0.695344474682
H                     0.678751176015    -3.189692907770    -2.138018623742
O                    -4.881947450330    -1.811559634955    -0.426319633912
O                     3.255759698252    -2.199127621730    -2.217787971251
H                     2.518078088616    -2.468806292695    -1.598753565027
H                     3.246067198502    -2.973517465997    -2.850451669919
H                    -3.964147078818    -1.376190430436    -0.378447188916
O                    -3.933960286546    -3.568666273461     2.950023855255
O                     1.587098177665    -5.026366509961     1.955459603494
O                     4.074427635981    -5.325851944584     0.971487553285
O                    -1.926908931906    -3.213470363875    -2.704348429729
H                    -0.583890863938    -3.440232826556    -3.664554533437
H                     4.734798286091    -5.952116070404     1.320845754511
O                    -4.170763505791    -2.029218445118    -3.187010413237
H                     2.533432451139    -5.280866499944     1.742263741632
H                    -4.566875730688    -2.114547942248    -2.285721889437
H                    -4.334419030173    -4.209079089740     3.566723732714
H                    -1.963600455119    -1.548915380154     0.215363191797
H                     0.702063485352    -4.842445615119    -0.701593845869
H                    -2.836530493910    -2.838113913835    -3.012968219731
H                     1.064355708959    -5.393590024867     1.165441584540
H                    -2.037371510153    -4.430236491530    -1.555918648946
O                    -2.087626347995    -4.956322460606    -0.694553677551
H                    -3.893644089943    -1.069206581197    -3.206893717751
O                     0.480038333481    -5.759089924929    -0.348695443812
H                    -3.591933973160    -4.740417576557     0.103466220510
H                     3.361512758078    -5.923785901668    -0.664806319326
H                     2.840431202008    -5.742044555462    -2.133291928228
O                    -4.385534336618    -4.384974334835     0.596562806013
H                    -1.254056785306    -5.508908185030    -0.640850123034
H                    -4.673388329148    -3.580958197506     0.095409084719
O                     2.821354220685    -6.367567499806    -1.367080263747
H                     1.269419032570    -6.253522248964    -0.757159342152
N                    -3.809849582439     5.206944343650     5.240646121459
C                    -3.823948397945     4.409212661957     4.010025832798
C                    -4.146653123135     3.005362048759     4.322731722842
N                    -4.429412409151     1.905203405667     4.556890527146
H                    -2.827660922932     4.430641873024     3.567342541961
H                    -4.535745621828     4.744343992084     3.247892960422
H                    -4.743312673326     5.236708206911     5.637332916387
H                    -3.565233670232     6.162817078680     5.005681417305
N                     7.830464536979     0.122263775098    -4.519394612238
C                     7.247164017845     0.713598484899    -5.728147965027
C                     6.159143223561    -0.142650136635    -6.233883969375
N                     5.282133233768    -0.795440524291    -6.620989106011
H                     8.016264974021     0.764177983543    -6.499472714346
H                     6.835480584188     1.720521146530    -5.599935962909
H                     7.138949596059     0.114514461691    -3.776867395677
H                     8.589407232790     0.715099326720    -4.201133652675
N                    -1.657006217894    -3.455406744942    -9.061894800153
C                    -2.574760625073    -2.356372180080    -8.744324670855
C                    -1.856801936921    -1.293911523506    -8.017391020791
N                    -1.292374263709    -0.440326436085    -7.471546627731
H                    -3.360627635108    -2.734416008959    -8.089716125556
H                    -3.056631266396    -1.889344065207    -9.610061482110
H                    -0.948004430836    -3.129711602292    -9.710615682764
H                    -2.175204049213    -4.183296321886    -9.541880014826
N                    -4.489461253516    -7.069246135740     1.999879706952
C                    -3.852776125554    -7.473458978919     0.742006532645
C                    -2.995509398818    -8.651357077491     0.966438430097
N                    -2.342593881919    -9.596080514369     1.128707208556
H                    -3.215379100783    -6.659708663842     0.394800685639
H                    -4.545130346822    -7.725068576518    -0.068643237902
H                    -5.124271310825    -7.797892753602     2.309217627471
H                    -5.056519191470    -6.246173909005     1.827439999626
N                     2.320079857571     3.676958891764     6.860537056320
C                     1.523019918721     3.448621915211     5.650760803983
C                     1.112961974577     4.738127736807     5.066169436421
N                     0.811674691553     5.748708378241     4.583380730846
H                     0.618281662226     2.905169927028     5.924850325752
H                     2.028470199125     2.880425172024     4.862416154496
H                     3.189165445093     4.138542635698     6.613089426899
H                     2.573029527663     2.778569745776     7.257590518138
N                     3.501410892754    -0.457445361185     6.566940205155
C                     4.884528432798    -0.780021999031     6.932906172753
C                     4.989593906215    -2.203072685462     7.302511154444
N                     5.086540420068    -3.328420550082     7.565809006602
H                     5.162948597981    -0.188464415664     7.805579237799
H                     5.627551361404    -0.591726073390     6.150425256562
H                     3.245098200944    -0.964252266745     5.726077426896
H                     3.447473859960     0.529028247285     6.337378326237
N                    -1.830330487261    -4.018927127951     8.218795597292
C                    -2.048294272834    -2.654279232545     7.727645092731
C                    -3.492702329234    -2.370267098316     7.651867021999
N                    -4.626558315630    -2.128710116142     7.617910757577
H                    -1.640689684199    -2.575693088236     6.719330081190
H                    -1.593129998809    -1.864334340589     8.334791998594
H                    -2.160558006262    -4.092863355067     9.175395236598
H                    -0.832712840660    -4.200372933976     8.242764377418
N                     5.856434178957     6.185847786365    -4.592241401064
C                     6.350931544164     4.819184635971    -4.395505321168
C                     5.313038521689     3.846733519779    -4.782592846786
N                     4.512683634478     3.075284101601    -5.113394978153
H                     6.564782897836     4.673212028468    -3.336271618975
H                     7.257174235593     4.568231503869    -4.957253944791
H                     5.700113008381     6.351897493660    -5.580973331490
H                     6.576805354262     6.837427167849    -4.300269282688
N                    -4.142893017422     1.671950663874    -5.691221391880
C                    -4.646222736574     3.048557297478    -5.640091416643
C                    -3.871651797282     3.832692950808    -4.661372365726
N                    -3.247627414006     4.464240249606    -3.915132600608
H                    -5.683644611410     3.029906208559    -5.304793903705
H                    -4.611932243826     3.590815356038    -6.591193497408
H                    -3.193473937149     1.670079567342    -6.049271037744
H                    -4.702408804264     1.145595211304    -6.353512918223
N                     7.488479684627     5.938914728864     1.725702706899
C                     6.035224880662     5.896382750861     1.532719789910
C                     5.406352853128     5.109939302797     2.609170685411
N                     4.901126404101     4.517938221303     3.469062041153
H                     5.821941651643     5.396262941292     0.587517759872
H                     5.540938138569     6.873675891449     1.512881677131
H                     7.703665607350     6.445778409847     2.577984277388
H                     7.902312350358     6.465617697400     0.964083019998
N                     5.360304868276    -6.713460050687    -4.895494593302
C                     4.357272997962    -5.856025050889    -5.535598650553
C                     4.550987391317    -4.455545545236    -5.118643341853
N                     4.715487434901    -3.347271006516    -4.818977711807
H                     3.366616243641    -6.167815649570    -5.203330301431
H                     4.363268300586    -5.872878784121    -6.630813159216
H                     6.284502262000    -6.466692212894    -5.233968291360
H                     5.195782541039    -7.673406698808    -5.178642750483
N                    -9.396608683546     2.824706166724    -0.137642347479
C                    -8.285749399907     3.748097988688    -0.391295870888
C                    -7.353543417109     3.741265464215     0.750485703137
N                    -6.599710863911     3.719124885516     1.631609119683
H                    -8.685099384983     4.758103827253    -0.488374361537
H                    -7.699317104205     3.532516955801    -1.290982924528
H                    -9.045246234218     1.873776137345    -0.094327764007
H                   -10.035649158105     2.860967733454    -0.924439915640
N                     1.344218522345    -7.372993071482     4.287523403973
C                     1.972764201001    -6.221532687522     4.943320798794
C                     3.066978718197    -6.675918176738     5.820217751043
N                     3.948732723474    -7.022768152070     6.489050442179
H                     1.229574856747    -5.725943042344     5.568682248837
H                     2.391239772327    -5.471637821324     4.263357055535
H                     2.011271987405    -7.814872388676     3.663518605545
H                     0.582020444753    -7.040346350071     3.706887297387
N                    -0.067474280152    -6.674278171893    -4.100905404016
C                    -1.515076365527    -6.596349657271    -3.878697723049
C                    -2.219926249357    -7.467143106031    -4.836625316690
N                    -2.779991988906    -8.172798614539    -5.567042228117
H                    -1.842236455908    -5.571712217001    -4.057864770294
H                    -1.846500878086    -6.882425751959    -2.874639423575
H                     0.259052771407    -7.611463230692    -3.889567059999
H                     0.395770614548    -6.052655067797    -3.446897046217
N                     7.487135966103    -0.967378455202     1.908448172153
C                     7.614618793776    -0.585179167025     3.318651256134
C                     7.060146161004    -1.644724819184     4.180418608589
N                     6.653219337249    -2.486836587953     4.866268834470
H                     7.032815581560     0.321024783342     3.489870014049
H                     8.638752552593    -0.393886219793     3.656840346813
H                     8.063664863769    -1.781592191929     1.723326399592
H                     7.854356872165    -0.216698708074     1.333672766676
N                     3.158093095926     0.826762380512    -6.701107885108
C                     1.975497761135     0.014113013331    -6.397677201542
C                     1.447459069942    -0.589405493735    -7.634471607098
N                     1.043697853054    -1.092081049311    -8.598539222748
H                     1.200888604665     0.662571508714    -5.987191306496
H                     2.142564388276    -0.800137247208    -5.684304881692
H                     3.904887518138     0.228007632532    -7.037842913231
H                     3.491775745229     1.248945478503    -5.841366434687
N                    -1.384802710163     5.160637654643    -7.607827201160
C                    -1.202056313557     5.433587016485    -6.178455551156
C                     0.227245236341     5.640041927990    -5.883170413018
N                     1.346368908026     5.833385802045    -5.647984205867
H                    -1.536782786075     4.565047904976    -5.610463969974
H                    -1.741746227487     6.308585947666    -5.800399376573
H                    -1.123513434776     5.979818740804    -8.146594219451
H                    -2.370634114462     5.000852442420    -7.784867247065
N                    -8.431053360253    -4.182273321794    -1.420796931275
C                    -7.927008442226    -3.205418699777    -0.449872284956
C                    -6.850105417717    -3.806395769788     0.357485310119
N                    -5.981736103300    -4.262261489372     0.976559923229
H                    -8.737786908672    -2.933837319234     0.226809522410
H                    -7.530482231415    -2.281421922426    -0.884397002023
H                    -7.700204703724    -4.406926314776    -2.087873325583
H                    -9.184021862319    -3.755929832573    -1.949954472428
N                    -0.942466617785     9.455728546734     1.855495197300
C                    -1.273155050136     8.029050212937     1.934457200307
C                    -2.727713291656     7.839730493439     1.789067338623
N                    -3.867444266946     7.679987186759     1.645444293811
H                    -0.986195806309     7.656975963379     2.918444792450
H                    -0.786509505254     7.397631705289     1.183257102644
H                    -1.158679504137     9.804063536197     0.927317216179
H                     0.058314053299     9.564820370794     1.979087519412
N                     2.273670031925    -9.331675295396     0.636659716872
C                     1.821640270315    -7.937521388908     0.691476496195
C                     0.393751390731    -7.855948065704     0.334826804517
N                    -0.736622461449    -7.786936589256     0.084577800903
H                     2.381515072143    -7.358665773132    -0.043698871962
H                     1.942145441372    -7.448524011166     1.664191703567
H                     1.795991797054    -9.872354823628     1.350164304567
H                     3.261635581456    -9.362305718091     0.864088593581
