122
0 1 C14H72N14O22
O                     1.263645444612     3.876929371564     1.788492641589
H                     1.467173953225     4.488459367595     2.487404389809
H                     0.285638798516     3.813025661723     1.716220925513
O                    -3.016202196294    -2.825958734473    -0.554744867988
H                    -2.618705067011    -3.115716336183    -1.382776353037
H                    -2.410879263733    -3.082172983447     0.145519922858
O                    -1.015427174419    -0.529128150651    -4.051598888778
H                    -1.728421899871     0.070796232426    -3.815697911385
H                    -1.315094376122    -1.413200846421    -3.824120179452
O                     2.947653003766    -1.050597667701     2.488278516476
H                     2.468990546908    -0.241517135130     2.271111703533
H                     3.612605788760    -1.132726912733     1.797234913698
O                     2.744136544518    -3.636575510822    -0.148921987270
H                     3.401254405817    -2.932617089504    -0.136947019208
H                     2.481653619973    -3.761257842735     0.767090088067
O                    -0.879613610463     0.072345435753     1.430464316275
H                    -1.360736635515     0.565531235242     2.103761363323
H                    -0.005232059750     0.487378090186     1.336343111300
O                    -2.719469319267     1.614862153245     2.882903832787
H                    -2.908912554018     1.805789608361     3.795036398866
H                    -3.543252236288     1.288919175740     2.472264328180
O                    -4.738473305401     0.640341821864     1.412476011228
H                    -4.193202598647     0.341160029125     0.665236646234
H                    -5.291842725399    -0.096082822560     1.650820559643
O                     1.542663738796     4.240469463827    -1.064815415785
H                     1.554794665967     4.282922784930    -0.105267539735
H                     0.767135099881     3.710730415129    -1.280364438743
O                    -2.909966854942    -0.147428739142    -0.473558325698
H                    -2.102546637036     0.006027333721     0.039616073986
H                    -2.981091097862    -1.120283046035    -0.560486313721
O                     3.709489727408     3.061733127385    -2.116413207248
H                     4.456636518141     3.640400525411    -2.208759414272
H                     2.963121859070     3.590719130454    -1.776140650639
O                    -0.863606412598    -2.678650182059     1.379172005345
H                    -0.876723641421    -1.724499215044     1.547703574925
H                    -0.141093598913    -3.032764934978     1.911645995329
O                    -1.448694910400    -3.176058265346    -2.907840578575
H                    -0.663639520619    -3.102083037869    -2.332590855689
H                    -1.335453680828    -3.958354747404    -3.437856074740
O                     0.400177692319    -2.654850532261    -1.049682900224
H                    -0.072916629634    -2.692098734026    -0.201595302551
H                     1.276462323034    -3.044500360393    -0.864572970649
O                     3.052017978850     0.703240677100    -1.026077638383
H                     2.280588500069     0.444261503659    -1.556987459909
H                     3.424990575516     1.502770487079    -1.437668513654
O                     4.410618722848    -1.332281591540     0.061430478436
H                     3.997859990516    -0.589336896493    -0.422443977064
H                     5.338344739006    -1.322063063183    -0.148548684499
O                    -2.771770167876     1.309023935625    -2.741060236305
H                    -2.928039473794     0.771551597005    -1.942403902106
H                    -3.604549388526     1.696746944864    -2.988665338281
O                     0.619373270143    -0.048180336173    -1.920919270310
H                     0.179792291286    -0.151545780175    -2.783874921942
H                     0.543203502439    -0.924917513947    -1.513654667449
O                     1.618787473375    -3.351451543522     2.515942181224
H                     2.073799323196    -2.484149378452     2.589762338611
H                     1.814527742304    -3.833566897555     3.312513520171
O                     1.645596691556     1.163016032002     1.315278672669
H                     2.140742663977     1.108151176929     0.481631437349
H                     1.651889677529     2.091627250506     1.581826022157
O                    -0.598463340674     2.372434893926    -1.244046599308
H                    -1.326512909056     2.301973932305    -1.869586297403
H                    -0.143590251701     1.519724150135    -1.316672207936
O                    -1.270651851425     3.465378883098     1.237668288802
H                    -1.163609424867     3.012063490746     0.390171369315
H                    -1.844313688131     2.922536597022     1.784095083717
N                    -2.182251885310     1.174587925783     6.269005259759
C                    -2.281938970895    -0.252335348269     6.592970342187
C                    -1.013021995204    -0.931554502150     6.274802311434
N                    -0.008180719836    -1.467495724719     6.055272769872
H                    -3.061753241411    -0.698164549998     5.974793615802
H                    -2.516474020196    -0.475325179612     7.639432791618
H                    -1.494112179518     1.612995501801     6.872215155968
H                    -3.071066014179     1.617629670680     6.475067156642
N                    -2.720513131899    -6.060569960753    -1.170073504416
C                    -1.335451590578    -5.796809575962    -1.573850538410
C                    -0.432143927630    -6.780005259702    -0.949285605905
N                     0.281520233452    -7.568004372345    -0.485741577911
H                    -1.048654407273    -4.807544801128    -1.215913374454
H                    -1.152933084138    -5.827644530941    -2.653457415045
H                    -3.017362327368    -6.957881871276    -1.539277417406
H                    -3.321223951687    -5.361222159928    -1.592917692912
N                    -0.395592239494     5.285892413420    -2.435843341524
C                    -0.052136507334     5.304541084000    -3.861568172072
C                    -0.189768086057     3.952019670676    -4.431184909385
N                    -0.324573969602     2.897016676781    -4.893708699592
H                     0.990798563229     5.604972459929    -3.966657966473
H                    -0.657981282710     5.979208070303    -4.476052813183
H                    -1.377701432460     5.055867975411    -2.325616606975
H                    -0.273727797394     6.219967481876    -2.059823567850
N                    -0.036313304386    -5.248909758072    -5.279779569954
C                    -0.951483998542    -4.102933893726    -5.265538188815
C                    -0.389503034373    -3.018991822753    -4.439725353306
N                     0.059596704773    -2.150228758157    -3.816273386310
H                    -1.893342967428    -4.412532677443    -4.811592472320
H                    -1.178233115373    -3.677896625531    -6.249277469844
H                     0.827279661819    -4.988693505899    -5.744639047825
H                    -0.451302857335    -5.989508790464    -5.834788386242
N                     4.207257619447     3.478697495600     0.860374108235
C                     4.329029392033     4.937889392697     0.943629976840
C                     4.858569110260     5.472878858302    -0.323687592482
N                     5.246425577991     5.904509552831    -1.327876069551
H                     5.040397881832     5.185537929538     1.732072439443
H                     3.395552801835     5.470069916875     1.156280288749
H                     3.510905093929     3.234750368136     0.163823601648
H                     3.862256848585     3.130060345949     1.748160479710
N                     4.659683750663    -0.348307350538     5.786188872925
C                     5.086780830567     0.688474770218     4.840846700886
C                     3.973980784216     1.617827254867     4.574952229073
N                     3.112695840290     2.370651720188     4.383704288362
H                     5.355339646134     0.212771287110     3.897131277801
H                     5.941886926752     1.290226095281     5.167195768982
H                     4.453838514806     0.075041688893     6.685078726389
H                     5.432121756539    -0.987815220868     5.938199572322
N                    -5.098894241971     3.599742670834    -4.000804581229
C                    -4.978788753169     3.314869861622    -2.567129910862
C                    -5.544871634487     4.427123172662    -1.782806891757
N                    -6.015343354184     5.284332298460    -1.159123415024
H                    -3.921367657551     3.233687642710    -2.313582064142
H                    -5.474102882233     2.396675597054    -2.233366493241
H                    -6.079286884610     3.628879051634    -4.260768003114
H                    -4.684945157254     2.833296945981    -4.520367038864
