33
0 1 C3H22O8
H                     0.052268076664     1.508275607562     0.391705718637
H                    -2.006341775627     0.518034072140    -0.390459564516
O                    -0.808245977776     1.365245881530     0.831062442776
O                     1.599061487954     1.490716957367    -0.369688242433
H                     1.889120408459     0.561747496475    -0.338910973062
H                     1.648756472182     1.751215737253    -1.283441852936
O                     2.028773428251    -1.177520752887    -0.264198188973
H                     2.677296663173    -1.657110465804     0.238925315112
H                     1.155039553402    -1.447994650197     0.069158804675
O                    -0.472304112208    -1.529343813935     0.743319257260
H                    -1.149081626563    -1.483521232115     0.061839341916
H                    -0.563561066153    -0.680867382139     1.180887076671
O                    -2.344915022502    -0.210987139686    -0.920736458347
H                    -3.293480487016    -0.154067447170    -0.891692805269
H                    -0.931785202246     2.085804666031     1.438999209127
C                    -1.198627224065    -1.353363074970    -3.379072741799
O                    -2.580858678036    -1.369311020862    -3.587766893130
H                    -3.021054936528    -1.434403310344    -2.747269919202
H                    -0.880913005104    -0.499261849265    -2.783244264417
H                    -0.729251451538    -1.278703367354    -4.351722754538
H                    -0.842869476451    -2.264250000229    -2.900360018398
C                    -2.291152348307    -1.898699579618     3.805525035146
O                    -2.459465076652    -3.084845995124     3.085039853903
H                    -3.386283871399    -3.293901918455     3.043237367852
H                    -2.789768564332    -1.054171460702     3.332664667730
H                    -1.229304447192    -1.689900180232     3.834118384877
H                    -2.647189813703    -1.984441221127     4.830868942868
C                     5.443657115926     0.265196031980     0.046003110625
O                     4.385511021070     1.063604309070    -0.398116753462
H                     4.736964065537     1.859744866018    -0.781634513119
H                     6.104130802132    -0.034089220196    -0.766182612652
H                     5.010885785212    -0.629485095208     0.475177195205
H                     6.037209025322     0.756804766962     0.815068394965
