72
0 1 CH48O23
O                     3.073072458366     1.109761658977     3.023892517026
H                     3.351393090608     1.369403044779     3.895923594863
H                     2.170771242847     1.448066210831     2.895920274518
O                    -4.778350189667     0.406423147594    -0.580906209218
H                    -5.722523065283     0.432410749363    -0.693853210969
H                    -4.495361859879    -0.522190171743    -0.714172367000
O                    -1.005284630618     2.662696822684    -3.808431080592
H                    -0.943563834981     3.603847270911    -3.678367027029
H                    -1.705052576981     2.361594233090    -3.215007607797
O                     1.699155727776    -3.807771307737     0.718923859758
H                     2.214958047948    -3.122678001062     1.150150712698
H                     1.779794502860    -3.656037923657    -0.230726195784
O                    -1.190194033781    -3.194757784564    -1.506342671381
H                    -0.306611922328    -3.334081518545    -1.867541382032
H                    -1.191996141480    -3.658178080342    -0.660854503293
O                     0.284033348944    -0.643609485848     1.246761537696
H                     0.374226513818     0.246665113913     1.624203348121
H                     1.175543418738    -1.017967436701     1.256036177954
O                    -1.897061728525     2.791226251752     2.375333493848
H                    -2.285492559909     3.265121695084     3.103230997867
H                    -2.465685290175     2.006746511525     2.217770963496
O                    -3.771298234168    -2.047600897227    -0.623646608957
H                    -3.180857114172    -2.005645013286     0.143248667811
H                    -3.245070202178    -2.441387891000    -1.317631696179
O                     3.917374338150     2.213707602199     0.471809844818
H                     3.746506689314     2.010816201781     1.395177562760
H                     3.118473852169     2.635147931182     0.136370433011
O                    -3.438224270951     0.667095809820     1.929638147494
H                    -3.117981823198    -0.231059159376     2.045925019459
H                    -3.970625811284     0.658392130605     1.126762344720
O                     4.461611059093    -0.175645446993    -0.543145345864
H                     5.400457501495    -0.263724988127    -0.672563734436
H                     4.299668793557     0.750825048607    -0.257759589307
O                    -2.135827930633    -1.889555566754     1.642090511528
H                    -1.264325543164    -1.474808567472     1.558831690114
H                    -1.934612593195    -2.819958288246     1.774036615590
O                    -2.519622587557     1.645236454170    -1.694976460795
H                    -1.995921487875     0.853806505749    -1.490613815437
H                    -3.423833667131     1.409719283716    -1.463986036246
O                    -0.847510133042    -0.468845499919    -1.209448294761
H                    -0.417090608730    -0.480608749472    -0.338729470571
H                    -1.060165699680    -1.397807621123    -1.386633112968
O                     2.755415448754    -1.030952630518    -2.640814741761
H                     2.197166041187    -0.267012385129    -2.830902715442
H                     3.389103925548    -0.729692086818    -1.981281175913
O                     1.584245071108    -3.329216977659    -2.066631014615
H                     1.986621447111    -2.457651237094    -2.290025671816
H                     1.973769246110    -3.957334922376    -2.666669128459
O                    -1.274108574552     3.747902441834    -0.314695749817
H                    -1.773278320523     3.067687746866    -0.786199222197
H                    -1.552185017969     3.659026335536     0.599537872042
O                     0.929936818000     1.066400804250    -2.588925016219
H                     0.419562236728     1.625082427887    -3.191886156804
H                     0.282493570263     0.456071791774    -2.201474437991
O                    -0.883554557196    -4.353022535478     1.110416304104
H                     0.078342823336    -4.171645527783     1.093579504543
H                    -0.985213166563    -5.276271760060     1.316026744033
O                     2.971690058336    -1.348193987307     1.511369399790
H                     3.543117872902    -1.056486970839     0.787655703093
H                     3.122541833183    -0.714645472593     2.218723323722
O                     1.298925736874     2.793130316025    -0.433528980186
H                     0.483480070308     3.319006572172    -0.484502996316
H                     1.246328072767     2.175668396924    -1.180957901749
O                     0.687599341775     1.910309844039     2.070901479997
H                     0.903012599028     2.241112271745     1.179070321346
H                    -0.169448660145     2.291196508145     2.313693090813
C                    -2.819913509271     7.261091279391     2.905652076260
O                    -3.590047953831     6.337182276664     2.193151919830
H                    -4.423878787184     6.735593670705     1.968564703575
H                    -2.602219768120     8.154211063927     2.322223168152
H                    -1.881118587562     6.777951485905     3.144766630434
H                    -3.293784467573     7.561052333199     3.838879873793
