17
0 1 C2H10N2O3
O                     0.583152862817     2.248980798194    -0.552874739850
H                    -0.144270514297     1.618377228742    -0.485590127394
H                     0.426056405293     2.757986884865    -1.340946751946
O                    -0.788883632351    -0.155855304127    -0.395538840222
H                    -1.273482362116    -0.562309313336     0.314286420661
H                     0.114934681314    -0.488307362410    -0.344087067031
O                     1.995292317339    -0.139618247557    -0.408629948857
H                     2.646244396282    -0.224721637850     0.279256371011
H                     1.802247438991     0.802545649112    -0.490479290895
N                    -4.306666548322    -1.045058060740    -1.053691883271
C                    -3.741082405942    -2.219698433276    -1.725506953665
C                    -4.371904340370    -2.398018236056    -3.045728744744
N                    -4.841883634214    -2.527661710155    -4.098080513187
H                    -3.962839820604    -3.105015864973    -1.128805069297
H                    -2.657857703472    -2.186493637536    -1.884681373676
H                    -4.065122446322    -0.207294980327    -1.572738223789
H                    -3.874967732812    -0.953573936310    -0.140453230986
