21
0 1 CH14O6
H                     0.052268076664     1.508275607562     0.391705718637
H                    -2.006341775627     0.518034072140    -0.390459564516
O                    -0.808245977776     1.365245881530     0.831062442776
O                     1.599061487954     1.490716957367    -0.369688242433
H                     1.889120408459     0.561747496475    -0.338910973062
H                     1.648756472182     1.751215737253    -1.283441852936
O                     2.028773428251    -1.177520752887    -0.264198188973
H                     2.677296663173    -1.657110465804     0.238925315112
H                     1.155039553402    -1.447994650197     0.069158804675
O                    -0.472304112208    -1.529343813935     0.743319257260
H                    -1.149081626563    -1.483521232115     0.061839341916
H                    -0.563561066153    -0.680867382139     1.180887076671
O                    -2.344915022502    -0.210987139686    -0.920736458347
H                    -3.293480487016    -0.154067447170    -0.891692805269
H                    -0.931785202246     2.085804666031     1.438999209127
C                    -4.072774227078    -3.383980706967     2.101789225694
O                    -2.819447404692    -3.767780888500     1.615743254468
H                    -2.935719581405    -4.253766295395     0.806580799972
H                    -4.602284321964    -2.732025297448     1.408957347909
H                    -3.905339975237    -2.834951026939     3.019649738196
H                    -4.706809643035    -4.239283736451     2.329605507747
