23
0 1 C2H14N2O5
H                     0.052268076664     1.508275607562     0.391705718637
H                    -2.006341775627     0.518034072140    -0.390459564516
O                    -0.808245977776     1.365245881530     0.831062442776
O                     1.599061487954     1.490716957367    -0.369688242433
H                     1.889120408459     0.561747496475    -0.338910973062
H                     1.648756472182     1.751215737253    -1.283441852936
O                     2.028773428251    -1.177520752887    -0.264198188973
H                     2.677296663173    -1.657110465804     0.238925315112
H                     1.155039553402    -1.447994650197     0.069158804675
O                    -0.472304112208    -1.529343813935     0.743319257260
H                    -1.149081626563    -1.483521232115     0.061839341916
H                    -0.563561066153    -0.680867382139     1.180887076671
O                    -2.344915022502    -0.210987139686    -0.920736458347
H                    -3.293480487016    -0.154067447170    -0.891692805269
H                    -0.931785202246     2.085804666031     1.438999209127
N                     3.599790376159     2.996492662993     0.910148146247
C                     5.041981349383     2.787589761836     0.744480764195
C                     5.288129372493     1.766623266211    -0.289810503555
N                     5.490813991623     0.986119065030    -1.123395735181
H                     5.452041436694     2.414985689471     1.683647078345
H                     5.610729071881     3.680096425780     0.462040169862
H                     3.213186836018     3.390285673511     0.058641005438
H                     3.452785910138     3.685542558879     1.639763089611
