66
0 1 H44O22
O                     1.263645445420     3.876929369754     1.788492640330
H                     1.467173952368     4.488459369738     2.487404391254
H                     0.285638799834     3.813025659682     1.716220923819
O                    -3.016202194621    -2.825958736352    -0.554744866431
H                    -2.618705066831    -3.115716334073    -1.382776352829
H                    -2.410879261320    -3.082172985226     0.145519921002
O                    -1.015427176580    -0.529128152712    -4.051598887836
H                    -1.728421900372     0.070796233606    -3.815697909560
H                    -1.315094373728    -1.413200846297    -3.824120179045
O                     2.947653001123    -1.050597666241     2.488278517573
H                     2.468990547397    -0.241517136133     2.271111701567
H                     3.612605786267    -1.132726913294     1.797234911922
O                     2.744136542194    -3.636575510173    -0.148921989505
H                     3.401254405232    -2.932617090191    -0.136947021006
H                     2.481653617758    -3.761257844761     0.767090086460
O                    -0.879613609019     0.072345435779     1.430464318847
H                    -1.360736636095     0.565531236898     2.103761361990
H                    -0.005232059849     0.487378090208     1.336343113756
O                    -2.719469319421     1.614862152433     2.882903832913
H                    -2.908912551421     1.805789610860     3.795036397250
H                    -3.543252236763     1.288919173272     2.472264326526
O                    -4.738473307245     0.640341820565     1.412476010231
H                    -4.193202600909     0.341160030157     0.665236647272
H                    -5.291842724898    -0.096082824070     1.650820561983
O                     1.542663739112     4.240469465360    -1.064815415868
H                     1.554794664690     4.282922785220    -0.105267542314
H                     0.767135100399     3.710730413711    -1.280364439203
O                    -2.909966855822    -0.147428737472    -0.473558328024
H                    -2.102546638379     0.006027331571     0.039616072173
H                    -2.981091100487    -1.120283047421    -0.560486315309
O                     3.709489724825     3.061733128996    -2.116413207399
H                     4.456636518507     3.640400525863    -2.208759412905
H                     2.963121857518     3.590719130048    -1.776140651917
O                    -0.863606412649    -2.678650181317     1.379172003400
H                    -0.876723643764    -1.724499213913     1.547703573298
H                    -0.141093597770    -3.032764934175     1.911645994343
O                    -1.448694911241    -3.176058265577    -2.907840580899
H                    -0.663639522217    -3.102083038232    -2.332590855569
H                    -1.335453679999    -3.958354745176    -3.437856074772
O                     0.400177690053    -2.654850532350    -1.049682901661
H                    -0.072916628550    -2.692098733658    -0.201595304507
H                     1.276462323521    -3.044500357955    -0.864572971906
O                     3.052017980085     0.703240678419    -1.026077640508
H                     2.280588497830     0.444261505752    -1.556987459317
H                     3.424990575742     1.502770487618    -1.437668515742
O                     4.410618723497    -1.332281592448     0.061430480068
H                     3.997859991188    -0.589336895631    -0.422443978973
H                     5.338344737545    -1.322063061038    -0.148548685745
O                    -2.771770165667     1.309023938116    -2.741060234584
H                    -2.928039471179     0.771551594633    -1.942403901609
H                    -3.604549388902     1.696746946662    -2.988665339895
O                     0.619373271893    -0.048180334395    -1.920919268461
H                     0.179792291214    -0.151545782030    -2.783874919340
H                     0.543203502072    -0.924917512476    -1.513654668457
O                     1.618787473046    -3.351451544355     2.515942181004
H                     2.073799323871    -2.484149380870     2.589762338645
H                     1.814527740795    -3.833566899585     3.312513522097
O                     1.645596692368     1.163016034170     1.315278671406
H                     2.140742662362     1.108151176888     0.481631439214
H                     1.651889675406     2.091627249410     1.581826023004
O                    -0.598463338925     2.372434894188    -1.244046597501
H                    -1.326512909475     2.301973930928    -1.869586295274
H                    -0.143590250396     1.519724150724    -1.316672209284
O                    -1.270651851206     3.465378883909     1.237668291194
H                    -1.163609427251     3.012063492024     0.390171368955
H                    -1.844313688249     2.922536596091     1.784095083847
