180
0 1 H120O60
O                     2.887897863834     0.662102373889     3.779962301319
H                     3.641214070845     0.223918971984     3.249537067402
H                     2.178738857044     0.845014609317     3.081599982943
O                     3.956803642252     2.992012921015     4.305989901894
H                     4.103258292209     3.113178325305     5.262098439927
H                     3.499972073520     2.080197630834     4.212615187169
O                    -0.165526759740     3.171780893256     3.793632940316
H                    -0.941092012057     3.265670420787     3.163267050038
H                    -0.140322055496     2.211814717411     3.970571329972
O                     4.667712188223     2.053769028504    -3.087719799317
H                     3.891427293321     1.451486638298    -3.248217885760
H                     5.305713534185     1.433949811985    -2.619043022708
O                     5.979563724167     0.469974765659    -1.354332033614
H                     5.089966064188     0.452780517547    -0.900741160942
H                     6.469972459256     1.203728971657    -0.860088230564
O                     6.929244615565     2.668383382714    -0.156827679966
H                     6.694476576586     2.681829664704     0.801346711865
H                     6.293210403802     3.303886499980    -0.568890116943
O                     3.662178449598     0.420224545813     0.020196239322
H                     3.440722523751     1.361130302785     0.306254578926
H                     2.773035956948    -0.032045448470    -0.151110103371
O                     0.893633441249     0.876383464466     2.019889450846
H                     0.078593129466     0.469049720524     2.473948124513
H                     0.604943314585     1.703612921901     1.515427823689
O                     5.719988142855     2.268470398157     2.359873727468
H                     5.328016172906     2.604508186670     3.211128673096
H                     5.625560940007     1.273250109268     2.408040405089
O                     2.038326296648     4.111474073340     2.687002483052
H                     2.725951131340     4.007008463063     3.396248975040
H                     1.196277351302     3.707251213846     3.095075787069
O                     0.111484879347     2.727382087438     0.332013504161
H                     0.491760131497     3.664480527531     0.346280960352
H                    -0.845215427470     2.839947684776     0.598982566109
O                     3.578168972435     2.870784270059     0.907017999052
H                     4.402644291389     2.691987966137     1.470175178821
H                     2.904793381595     3.299042057410     1.527966767680
O                     4.612080729330     3.888430883295    -1.299298645282
H                     4.181273436737     3.488298132421    -0.480074003267
H                     4.550528706209     3.158890494707    -2.045364787193
O                     1.049126167416     5.221384946402     0.429829782021
H                     1.792768051984     5.414792831958    -0.217804196581
H                     1.467869958936     5.121766852785     1.328962913506
O                    -5.634480707472     1.921812094084     1.143392790820
H                    -5.873826963868     1.283301111847     0.394103145335
H                    -4.767591927065     1.562046647043     1.476736368399
O                    -2.074708294438     3.192912715670     1.908935944629
H                    -2.616616228495     3.973808608840     1.580333569515
H                    -2.682983815618     2.418522096723     1.991386478145
O                    -2.483586111709     2.432631790992    -1.116162594425
H                    -2.764468523254     1.663789964788    -1.683946587369
H                    -3.355161686626     2.869683694394    -0.902556517570
O                     0.730798500173     1.823422125447    -2.099046967758
H                     0.412171637433     2.064561640194    -1.171261809301
H                     1.107022969725     2.684155766323    -2.444146014766
O                     0.451732371766    -4.151145664431     4.276178830562
H                     1.019642970568    -3.369640285529     4.478769485299
H                     0.915708406452    -4.610484203103     3.520345607565
O                     1.340471874881     4.219490454304    -3.124658193107
H                     1.937224745151     4.847632416810    -2.584168165391
H                     1.722378567476     4.184565285347    -4.020970932721
O                    -5.605125271192     2.214335107225    -2.699838131016
H                    -5.346543099554     2.926812035898    -2.024639298645
H                    -6.185255160789     2.656732170067    -3.345472239522
O                    -1.364727528276    -2.797124916943     3.070471445225
H                    -0.708492591964    -3.401467080427     3.599523825183
H                    -2.295581898075    -3.157502038576     3.165343453306
O                    -3.301663087980     5.267494427245     0.741301225870
H                    -2.492337070797     5.639326705049     0.163897967630
H                    -3.626974907512     6.025538004084     1.260699250376
O                    -4.891877845381     3.679735548981    -0.666546248887
H                    -4.412380148627     4.453733274743    -0.245794424845
H                    -5.238272768135     3.134939957290     0.113323063560
O                     2.843561917225     5.594273034279    -1.539403614398
H                     3.696917086148     4.925220116020    -1.477746481855
H                     3.175158928790     6.489455042032    -1.735256606208
O                    -1.374777457654     6.060927393816    -0.665517643893
H                    -1.409282726506     5.512546592420    -1.507333130782
H                    -0.507060790261     5.841852246151    -0.233271853487
O                    -3.308689491375     0.663123124816     2.039883159407
H                    -2.920825906959     0.265489569057     1.188127613419
H                    -3.983122919405    -0.053519332367     2.292952959895
O                    -6.337742975235     0.326053955480    -0.866993342122
H                    -6.268112581000     0.936311858692    -1.651771594227
H                    -7.323162931107     0.169360894745    -0.600794660697
O                    -1.427788198422     4.292587305084    -2.748707643699
H                    -0.442079723731     4.252179196206    -2.844967281164
H                    -1.701437350284     3.558107379454    -2.110758630452
O                    -1.156662229744     1.695351455348    -4.012000582698
H                    -1.376787153901     2.658068161546    -4.026644666763
H                    -0.521683827693     1.654405384226    -3.224962416522
H                     4.380621926243    -0.086632619942     1.370069711193
O                     4.823605292891    -0.273271230684     2.268550721651
O                     1.264148035626    -0.655980051851    -0.084320790297
H                     0.546496737113    -1.052981530923     4.219331596247
H                    -1.219425033430    -1.188788749950     3.271070580947
O                     2.568510331649     0.239502316008    -3.204613668161
H                     2.875389675744    -0.632758322135    -2.806582410526
O                    -1.060244206845    -0.192548808581     3.394137552016
H                     2.065781473689    -0.759294502235     4.279837764485
H                     1.020075067909    -0.016919137629     0.660793481364
H                     1.286889916317    -0.229257368500    -4.104750407351
H                     1.990778715023     0.690997976918    -2.523949236289
O                     1.412258875803    -1.519435001349     4.208993526180
H                     5.033270041451    -1.252247879011     2.199689990507
O                     0.391683941942    -0.604683810128    -4.405000258169
H                     1.494491336771    -1.467460914009     0.475474929013
O                     2.053836899819    -2.445000624782     1.687848488572
H                    -1.917831442214     0.215255177858     3.091511796843
H                     1.802861246879    -2.080700136774     2.587652915653
O                     5.654312255612    -2.207650109058    -0.885445604925
H                     6.008668352985    -1.287173710547    -1.030805419714
H                    -6.901665922116     1.061819504957     2.213455668659
H                    -2.617871813821     0.961344296885    -3.511279738195
O                    -7.425148555248     0.260852800115     2.475796699378
H                     5.110530425007    -2.541886178854     0.512708666801
O                     4.748317137593    -2.840051392778     1.439334019304
H                    -0.131817032772     0.168161333090    -4.720707470441
O                    -3.398384116825     0.606879550451    -2.983569502267
O                    -0.694358973462    -0.900518560862    -1.934361764749
H                     3.774562671473    -2.605770503906     1.459773908185
H                     0.071646736026    -0.809394748018    -1.287492546886
H                    -8.872899306077    -1.056935231485     0.132958628039
H                     1.779241484316    -3.422808453027     1.727558848683
H                    -6.703033713350    -0.416378207500     2.557799369905
H                     3.109228860286    -4.794522852032    -4.400464114602
H                     4.831668236445    -2.218195829996    -1.444294565000
O                    -5.120543920788    -1.270908539426     2.283988736082
O                    -1.086915592212    -2.817900267125     0.484374674270
H                     0.293303696486    -2.922761038076    -0.595926673158
H                    -0.313770718345    -0.697573055725    -2.838317501521
H                    -8.259728032584    -0.000490729632     1.133283602315
O                    -8.624038911255    -0.115781336454     0.182466925160
H                     0.405053959257    -2.371027438888    -4.264788433317
O                     2.711063743800    -4.495310538989    -3.562663368076
H                    -1.546479170354    -3.657543425157     0.155231626017
H                    -4.162203295519     1.223950432812    -3.136132223794
H                    -1.074635978866    -2.880637929431     1.499812437481
H                    -5.131853829685    -1.515244796019     1.311871736668
H                    -4.765177625489    -2.109363870953     2.712656665485
H                    -2.029939876452    -0.437045132162    -0.870475747162
O                     1.001524163415    -3.299801076385    -1.198394355646
H                     4.461428319809    -4.393589611332     1.164640572078
H                     1.780212075463    -4.185295151639    -3.801195649632
H                    -1.510047698392    -2.402375918839    -2.284187959003
O                     0.387597847640    -3.299323939075    -3.901837557888
H                    -4.084704983545    -3.971058413753     1.988787206997
O                    -2.519957212835    -0.726219543456    -0.049598520041
H                    -5.489635469498    -1.045276170847    -0.695344475782
H                     0.678751178529    -3.189692909885    -2.138018622188
O                    -4.881947449738    -1.811559632530    -0.426319633626
O                     3.255759697846    -2.199127621119    -2.217787973606
H                     2.518078089077    -2.468806295075    -1.598753565290
H                     3.246067195859    -2.973517464772    -2.850451667830
H                    -3.964147079624    -1.376190431674    -0.378447188662
O                    -3.933960287459    -3.568666272817     2.950023853808
O                     1.587098178313    -5.026366511143     1.955459605574
O                     4.074427633533    -5.325851944546     0.971487552919
O                    -1.926908933339    -3.213470365669    -2.704348429289
H                    -0.583890863736    -3.440232826354    -3.664554534785
H                     4.734798283507    -5.952116072361     1.320845752510
O                    -4.170763507568    -2.029218445152    -3.187010412594
H                     2.533432449571    -5.280866499688     1.742263740604
H                    -4.566875732627    -2.114547942649    -2.285721889569
H                    -4.334419027848    -4.209079089310     3.566723731200
H                    -1.963600452585    -1.548915380070     0.215363191652
H                     0.702063482950    -4.842445617266    -0.701593845299
H                    -2.836530491852    -2.838113915085    -3.012968221634
H                     1.064355709364    -5.393590023659     1.165441586824
H                    -2.037371510932    -4.430236491701    -1.555918650854
O                    -2.087626349204    -4.956322462805    -0.694553676737
H                    -3.893644092255    -1.069206578805    -3.206893716443
O                     0.480038333415    -5.759089923002    -0.348695445799
H                    -3.591933972003    -4.740417578792     0.103466219560
H                     3.361512760437    -5.923785900311    -0.664806321008
H                     2.840431202363    -5.742044556130    -2.133291929270
O                    -4.385534334964    -4.384974336669     0.596562804498
H                    -1.254056784454    -5.508908185578    -0.640850125417
H                    -4.673388331546    -3.580958198793     0.095409083919
O                     2.821354218656    -6.367567501492    -1.367080262232
H                     1.269419033106    -6.253522246951    -0.757159344410
