8
0 1 C2H4N2
N                     1.566100435099     0.484155772517     0.088459184370
C                     0.619350396174    -0.629900070756    -0.027923130387
C                    -0.763929059878    -0.121960310592     0.007502987985
N                    -1.854574019926     0.272521593658     0.004374390845
H                     0.751998781407    -1.293035245177     0.827455490414
H                     0.721186457095    -1.232380661231    -0.937022334877
H                     1.488016147909     1.083360952279    -0.726682299243
H                     2.509276810558     0.111152264795     0.083483318723
