66
0 1 H44O22
O                     3.073072458872     1.109761661504     3.023892514974
H                     3.351393092994     1.369403045977     3.895923595727
H                     2.170771240692     1.448066211335     2.895920276041
O                    -4.778350190439     0.406423148160    -0.580906209675
H                    -5.722523066122     0.432410750688    -0.693853208685
H                    -4.495361861592    -0.522190174365    -0.714172368918
O                    -1.005284631694     2.662696820415    -3.808431082288
H                    -0.943563835709     3.603847271172    -3.678367026776
H                    -1.705052575139     2.361594232186    -3.215007610169
O                     1.699155730065    -3.807771307132     0.718923857984
H                     2.214958046419    -3.122678001138     1.150150714004
H                     1.779794504407    -3.656037922302    -0.230726195123
O                    -1.190194036018    -3.194757787077    -1.506342669857
H                    -0.306611923933    -3.334081520612    -1.867541383413
H                    -1.191996139135    -3.658178081097    -0.660854501055
O                     0.284033348219    -0.643609488489     1.246761536987
H                     0.374226514974     0.246665111763     1.624203350315
H                     1.175543416971    -1.017967437689     1.256036180507
O                    -1.897061730728     2.791226253757     2.375333494434
H                    -2.285492559586     3.265121692636     3.103231000314
H                    -2.465685288920     2.006746514143     2.217770962247
O                    -3.771298235743    -2.047600898421    -0.623646611030
H                    -3.180857115809    -2.005645010718     0.143248670150
H                    -3.245070202258    -2.441387889790    -1.317631694870
O                     3.917374338898     2.213707602829     0.471809845558
H                     3.746506687944     2.010816201140     1.395177563861
H                     3.118473851920     2.635147932133     0.136370433995
O                    -3.438224273350     0.667095811165     1.929638146736
H                    -3.117981825122    -0.231059158640     2.045925020329
H                    -3.970625808937     0.658392128941     1.126762346879
O                     4.461611057244    -0.175645449364    -0.543145347294
H                     5.400457501024    -0.263724989745    -0.672563734183
H                     4.299668791191     0.750825047501    -0.257759589313
O                    -2.135827929479    -1.889555568172     1.642090511790
H                    -1.264325545165    -1.474808567430     1.558831688071
H                    -1.934612593797    -2.819958285627     1.774036618226
O                    -2.519622589305     1.645236456500    -1.694976460265
H                    -1.995921489940     0.853806504663    -1.490613816547
H                    -3.423833667574     1.409719284861    -1.463986036332
O                    -0.847510133106    -0.468845498229    -1.209448296452
H                    -0.417090610111    -0.480608751806    -0.338729468365
H                    -1.060165699479    -1.397807622763    -1.386633111952
O                     2.755415451376    -1.030952628555    -2.640814741107
H                     2.197166040645    -0.267012387204    -2.830902713241
H                     3.389103926948    -0.729692086511    -1.981281173599
O                     1.584245070908    -3.329216980222    -2.066631013760
H                     1.986621447708    -2.457651236024    -2.290025674204
H                     1.973769245288    -3.957334924734    -2.666669126535
O                    -1.274108572764     3.747902439705    -0.314695751040
H                    -1.773278323145     3.067687747154    -0.786199221979
H                    -1.552185018091     3.659026336982     0.599537874260
O                     0.929936817111     1.066400803796    -2.588925015392
H                     0.419562236495     1.625082427284    -3.191886157354
H                     0.282493571015     0.456071789168    -2.201474439212
O                    -0.883554555051    -4.353022536961     1.110416303235
H                     0.078342824941    -4.171645529026     1.093579502185
H                    -0.985213166094    -5.276271758582     1.316026745584
O                     2.971690059685    -1.348193988597     1.511369401765
H                     3.543117872054    -1.056486971623     0.787655705503
H                     3.122541830637    -0.714645473358     2.218723323628
O                     1.298925739361     2.793130313515    -0.433528978290
H                     0.483480072873     3.319006570009    -0.484502997714
H                     1.246328073623     2.175668399352    -1.180957903313
O                     0.687599344342     1.910309844384     2.070901482257
H                     0.903012600072     2.241112273100     1.179070323572
H                    -0.169448660528     2.291196505907     2.313693089247
